1



                                 *********************************************

                                    NUMERICAL ELECTROMAGNETICS CODE (NEC-2D)

                                 *********************************************




                                     - - - - COMMENTS - - - -


                                                                                                     
                          forw: 65, 0 ; back: 65, 180                                                
                                                                                                     




                                 - - - STRUCTURE SPECIFICATION - - -

                                     COORDINATES MUST BE INPUT IN
                                     METERS OR BE SCALED TO METERS
                                     BEFORE STRUCTURE INPUT IS ENDED


  WIRE                                                                               NO. OF    FIRST  LAST     TAG
  NO.        X1         Y1         Z1          X2         Y2         Z2      RADIUS   SEG.     SEG.   SEG.     NO.
     1  -51.83000    0.00000   36.70000    52.16600    0.00000   40.80000    0.00041     19        1    19       1
      STRUCTURE SCALED BY FACTOR   0.30480

   GROUND PLANE SPECIFIED.

   WHERE WIRE ENDS TOUCH GROUND, CURRENT WILL BE INTERPOLATED TO IMAGE IN GROUND PLANE.


   TOTAL SEGMENTS USED=   19     NO. SEG. IN A SYMMETRIC CELL=   19     SYMMETRY FLAG=  0


         - MULTIPLE WIRE JUNCTIONS -
 JUNCTION    SEGMENTS  (- FOR END 1, + FOR END 2)
  NONE




                                 - - - - SEGMENTATION DATA - - - -

                                        COORDINATES IN METERS

                         I+ AND I- INDICATE THE SEGMENTS BEFORE AND AFTER I


  SEG.   COORDINATES OF SEG. CENTER     SEG.     ORIENTATION ANGLES    WIRE    CONNECTION DATA   TAG
  NO.       X         Y         Z       LENGTH     ALPHA     BETA      RADIUS    I-   I    I+    NO.
     1 -14.96363   0.00000  11.21905   1.66961    2.25769   0.00000   0.00012     0    1    2      1
     2 -13.29531   0.00000  11.28482   1.66961    2.25769   0.00000   0.00012     1    2    3      1
     3 -11.62700   0.00000  11.35059   1.66961    2.25769   0.00000   0.00012     2    3    4      1
     4  -9.95868   0.00000  11.41636   1.66961    2.25769   0.00000   0.00012     3    4    5      1
     5  -8.29037   0.00000  11.48214   1.66961    2.25769   0.00000   0.00012     4    5    6      1
     6  -6.62205   0.00000  11.54791   1.66961    2.25769   0.00000   0.00012     5    6    7      1
     7  -4.95374   0.00000  11.61368   1.66961    2.25769   0.00000   0.00012     6    7    8      1
     8  -3.28542   0.00000  11.67945   1.66961    2.25769   0.00000   0.00012     7    8    9      1
     9  -1.61711   0.00000  11.74523   1.66961    2.25769   0.00000   0.00012     8    9   10      1
    10   0.05121   0.00000  11.81100   1.66961    2.25769   0.00000   0.00012     9   10   11      1
    11   1.71952   0.00000  11.87677   1.66961    2.25769   0.00000   0.00012    10   11   12      1
    12   3.38784   0.00000  11.94255   1.66961    2.25769   0.00000   0.00012    11   12   13      1
    13   5.05615   0.00000  12.00832   1.66961    2.25769   0.00000   0.00012    12   13   14      1
    14   6.72447   0.00000  12.07409   1.66961    2.25769   0.00000   0.00012    13   14   15      1
    15   8.39278   0.00000  12.13986   1.66961    2.25769   0.00000   0.00012    14   15   16      1
    16  10.06110   0.00000  12.20564   1.66961    2.25769   0.00000   0.00012    15   16   17      1
    17  11.72941   0.00000  12.27141   1.66961    2.25769   0.00000   0.00012    16   17   18      1
    18  13.39772   0.00000  12.33718   1.66961    2.25769   0.00000   0.00012    17   18   19      1
    19  15.06604   0.00000  12.40295   1.66961    2.25769   0.00000   0.00012    18   19    0      1






 ***** DATA CARD NO.  1   LD   5     1     1    19  5.80000E+07  0.00000E+00  0.00000E+00  0.00000E+00  0.00000E+00  0.00000E+00
 ***** DATA CARD NO.  2   GN   2     0     0     0  1.30000E+01  4.00000E-03  0.00000E+00  0.00000E+00  0.00000E+00  0.00000E+00
 ***** DATA CARD NO.  3   EK   0     0     0     0  0.00000E+00  0.00000E+00  0.00000E+00  0.00000E+00  0.00000E+00  0.00000E+00
 ***** DATA CARD NO.  4   EX   0     1    10     0  0.00000E+00  0.00000E+00  0.00000E+00  0.00000E+00  0.00000E+00  0.00000E+00
 ***** DATA CARD NO.  5   FR   0     0     0     0  1.41000E+01  0.00000E+00  0.00000E+00  0.00000E+00  0.00000E+00  0.00000E+00
 ***** DATA CARD NO.  6   XQ   0     0     0     0  0.00000E+00  0.00000E+00  0.00000E+00  0.00000E+00  0.00000E+00  0.00000E+00




                                 - - - - - - FREQUENCY - - - - - -

                                    FREQUENCY= 1.4100E+01 MHZ
                                    WAVELENGTH= 2.1262E+01 METERS




                    APPROXIMATE INTEGRATION EMPLOYED FOR SEGMENTS MORE THAN   1.000 WAVELENGTHS APART

                    THE EXTENDED THIN WIRE KERNEL WILL BE USED



                               - - - STRUCTURE IMPEDANCE LOADING - - -


       LOCATION          RESISTANCE   INDUCTANCE  CAPACITANCE       IMPEDANCE (OHMS)     CONDUCTIVITY    TYPE
    ITAG FROM THRU          OHMS        HENRYS       FARADS        REAL      IMAGINARY    MHOS/METER

       1    1   19                                                                       5.8000E+07     WIRE  



                                  - - - ANTENNA ENVIRONMENT - - -

                                        FINITE GROUND.  SOMMERFELD SOLUTION
                                        RELATIVE DIELECTRIC CONST.= 13.000
                                        CONDUCTIVITY= 4.000E-03 MHOS/METER
                                        COMPLEX DIELECTRIC CONSTANT= 1.30000E+01-5.09958E+00



                                - - - MATRIX TIMING - - -

                        FILL=    0.000 SEC.,  FACTOR=    0.000 SEC.



                                          - - - ANTENNA INPUT PARAMETERS - - -

   TAG   SEG.    VOLTAGE (VOLTS)         CURRENT (AMPS)         IMPEDANCE (OHMS)        ADMITTANCE (MHOS)      POWER
   NO.   NO.    REAL        IMAG.       REAL        IMAG.       REAL        IMAG.       REAL        IMAG.     (WATTS)
     1    10 1.00000E+00 0.00000E+00 7.36897E-03-1.54371E-03 1.29999E+02 2.72332E+01 7.36897E-03-1.54371E-03 3.68449E-03



                             - - - CURRENTS AND LOCATION - - -

                                 DISTANCES IN WAVELENGTHS


  SEG.  TAG    COORD. OF SEG. CENTER     SEG.            - - - CURRENT (AMPS) - - -
  NO.   NO.     X        Y        Z      LENGTH     REAL        IMAG.       MAG.        PHASE
     1    1  -0.7038   0.0000   0.5276  0.07852  -1.9472E-03  4.9233E-04  2.0085E-03  165.811
     2    1  -0.6253   0.0000   0.5307  0.07852  -5.1439E-03  1.2276E-03  5.2883E-03  166.577
     3    1  -0.5468   0.0000   0.5338  0.07852  -7.0236E-03  1.5516E-03  7.1929E-03  167.542
     4    1  -0.4684   0.0000   0.5369  0.07852  -7.2168E-03  1.4147E-03  7.3542E-03  168.909
     5    1  -0.3899   0.0000   0.5400  0.07852  -5.6961E-03  8.7055E-04  5.7623E-03  171.311
     6    1  -0.3114   0.0000   0.5431  0.07852  -2.8268E-03  7.3704E-05  2.8278E-03  178.506
     7    1  -0.2330   0.0000   0.5462  0.07852   7.1168E-04 -7.5729E-04  1.0392E-03  -46.779
     8    1  -0.1545   0.0000   0.5493  0.07852   4.0834E-03 -1.3940E-03  4.3148E-03  -18.848
     9    1  -0.0761   0.0000   0.5524  0.07852   6.4921E-03 -1.6516E-03  6.6989E-03  -14.273
    10    1   0.0024   0.0000   0.5555  0.07852   7.3690E-03 -1.5437E-03  7.5289E-03  -11.832
    11    1   0.0809   0.0000   0.5586  0.07852   6.5068E-03 -1.6428E-03  6.7109E-03  -14.169
    12    1   0.1593   0.0000   0.5617  0.07852   4.1098E-03 -1.3781E-03  4.3347E-03  -18.537
    13    1   0.2378   0.0000   0.5648  0.07852   7.4499E-04 -7.3734E-04  1.0482E-03  -44.704
    14    1   0.3163   0.0000   0.5679  0.07852  -2.7926E-03  9.4152E-05  2.7942E-03  178.069
    15    1   0.3947   0.0000   0.5710  0.07852  -5.6665E-03  8.8825E-04  5.7357E-03  171.091
    16    1   0.4732   0.0000   0.5740  0.07852  -7.1957E-03  1.4275E-03  7.3359E-03  168.779
    17    1   0.5517   0.0000   0.5771  0.07852  -7.0122E-03  1.5588E-03  7.1833E-03  167.467
    18    1   0.6301   0.0000   0.5802  0.07852  -5.1405E-03  1.2302E-03  5.2856E-03  166.541
    19    1   0.7086   0.0000   0.5833  0.07852  -1.9476E-03  4.9250E-04  2.0089E-03  165.809



                                        - - - POWER BUDGET - - -

                                           INPUT POWER   = 3.6845E-03 WATTS
                                           RADIATED POWER= 3.0707E-03 WATTS
                                           STRUCTURE LOSS= 6.1376E-04 WATTS
                                           NETWORK LOSS  = 0.0000E+00 WATTS
                                           EFFICIENCY    =  83.34 PERCENT






 ***** DATA CARD NO.  7   FR   0   151     0     0  7.00000E+00  1.00000E-01  0.00000E+00  0.00000E+00  0.00000E+00  0.00000E+00
 ***** DATA CARD NO.  8   RP   0     1    73  1000  6.50000E+01  0.00000E+00  0.00000E+00  5.00000E+00  0.00000E+00  0.00000E+00




                                 - - - - - - FREQUENCY - - - - - -

                                    FREQUENCY= 7.0000E+00 MHZ
                                    WAVELENGTH= 4.2829E+01 METERS




                    APPROXIMATE INTEGRATION EMPLOYED FOR SEGMENTS MORE THAN   1.000 WAVELENGTHS APART

                    THE EXTENDED THIN WIRE KERNEL WILL BE USED



                               - - - STRUCTURE IMPEDANCE LOADING - - -


       LOCATION          RESISTANCE   INDUCTANCE  CAPACITANCE       IMPEDANCE (OHMS)     CONDUCTIVITY    TYPE
    ITAG FROM THRU          OHMS        HENRYS       FARADS        REAL      IMAGINARY    MHOS/METER

       1    1   19                                                                       5.8000E+07     WIRE  



                                  - - - ANTENNA ENVIRONMENT - - -

                                        FINITE GROUND.  SOMMERFELD SOLUTION
                                        RELATIVE DIELECTRIC CONST.= 13.000
                                        CONDUCTIVITY= 4.000E-03 MHOS/METER
                                        COMPLEX DIELECTRIC CONSTANT= 1.30000E+01-1.02720E+01



                                - - - MATRIX TIMING - - -

                        FILL=    0.000 SEC.,  FACTOR=    0.000 SEC.



                                          - - - ANTENNA INPUT PARAMETERS - - -

   TAG   SEG.    VOLTAGE (VOLTS)         CURRENT (AMPS)         IMPEDANCE (OHMS)        ADMITTANCE (MHOS)      POWER
   NO.   NO.    REAL        IMAG.       REAL        IMAG.       REAL        IMAG.       REAL        IMAG.     (WATTS)
     1    10 1.00000E+00 0.00000E+00 2.38919E-04-6.54558E-04 4.92080E+02 1.34814E+03 2.38919E-04-6.54558E-04 1.19459E-04



                             - - - CURRENTS AND LOCATION - - -

                                 DISTANCES IN WAVELENGTHS


  SEG.  TAG    COORD. OF SEG. CENTER     SEG.            - - - CURRENT (AMPS) - - -
  NO.   NO.     X        Y        Z      LENGTH     REAL        IMAG.       MAG.        PHASE
     1    1  -0.3494   0.0000   0.2620  0.03898   1.7019E-05 -1.3945E-04  1.4049E-04  -83.042
     2    1  -0.3104   0.0000   0.2635  0.03898   5.1149E-05 -3.9059E-04  3.9393E-04  -82.539
     3    1  -0.2715   0.0000   0.2650  0.03898   8.5857E-05 -6.0803E-04  6.1406E-04  -81.963
     4    1  -0.2325   0.0000   0.2666  0.03898   1.2014E-04 -7.8400E-04  7.9315E-04  -81.288
     5    1  -0.1936   0.0000   0.2681  0.03898   1.5253E-04 -9.0917E-04  9.2187E-04  -80.476
     6    1  -0.1546   0.0000   0.2696  0.03898   1.8155E-04 -9.7615E-04  9.9289E-04  -79.464
     7    1  -0.1157   0.0000   0.2712  0.03898   2.0578E-04 -9.8033E-04  1.0017E-03  -78.145
     8    1  -0.0767   0.0000   0.2727  0.03898   2.2401E-04 -9.1978E-04  9.4667E-04  -76.312
     9    1  -0.0378   0.0000   0.2742  0.03898   2.3527E-04 -7.9344E-04  8.2759E-04  -73.484
    10    1   0.0012   0.0000   0.2758  0.03898   2.3892E-04 -6.5456E-04  6.9680E-04  -69.948
    11    1   0.0401   0.0000   0.2773  0.03898   2.3470E-04 -7.9264E-04  8.2666E-04  -73.506
    12    1   0.0791   0.0000   0.2788  0.03898   2.2291E-04 -9.1826E-04  9.4493E-04  -76.355
    13    1   0.1181   0.0000   0.2804  0.03898   2.0425E-04 -9.7822E-04  9.9932E-04  -78.206
    14    1   0.1570   0.0000   0.2819  0.03898   1.7973E-04 -9.7365E-04  9.9010E-04  -79.541
    15    1   0.1960   0.0000   0.2835  0.03898   1.5060E-04 -9.0650E-04  9.1893E-04  -80.567
    16    1   0.2349   0.0000   0.2850  0.03898   1.1828E-04 -7.8144E-04  7.9035E-04  -81.393
    17    1   0.2739   0.0000   0.2865  0.03898   8.4281E-05 -6.0585E-04  6.1169E-04  -82.080
    18    1   0.3128   0.0000   0.2881  0.03898   5.0050E-05 -3.8907E-04  3.9228E-04  -82.670
    19    1   0.3518   0.0000   0.2896  0.03898   1.6597E-05 -1.3887E-04  1.3986E-04  -83.185



                                        - - - POWER BUDGET - - -

                                           INPUT POWER   = 1.1946E-04 WATTS
                                           RADIATED POWER= 1.0989E-04 WATTS
                                           STRUCTURE LOSS= 9.5685E-06 WATTS
                                           NETWORK LOSS  = 0.0000E+00 WATTS
                                           EFFICIENCY    =  91.99 PERCENT



                                                - - - RADIATION PATTERNS - - -

  - - ANGLES - -           - POWER GAINS -       - - - POLARIZATION - - -    - - - E(THETA) - - -    - - - E(PHI) - - -
  THETA     PHI        VERT.   HOR.    TOTAL      AXIAL     TILT   SENSE     MAGNITUDE    PHASE      MAGNITUDE    PHASE 
 DEGREES  DEGREES       DB      DB      DB        RATIO     DEG.              VOLTS/M    DEGREES      VOLTS/M    DEGREES
   65.00     0.00     -10.25 -999.99  -10.25    0.00000     0.00  LINEAR    2.60126E-02  -106.53    0.00000E+00     0.00
   65.00     5.00     -10.24  -22.49   -9.99    0.09344   -12.71  RIGHT     2.60389E-02  -106.54    6.35422E-03    97.17
   65.00    10.00     -10.21  -16.37   -9.27    0.16331   -24.97  RIGHT     2.61107E-02  -106.60    1.28475E-02    97.08
   65.00    15.00     -10.18  -12.70   -8.25    0.19977   -36.10  RIGHT     2.62061E-02  -106.67    1.96102E-02    96.93
   65.00    20.00     -10.16  -10.00   -7.07    0.20807   -45.55  RIGHT     2.62894E-02  -106.77    2.67543E-02    96.74
   65.00    25.00     -10.15   -7.83   -5.82    0.19918   -53.20  RIGHT     2.63122E-02  -106.87    3.43650E-02    96.52
   65.00    30.00     -10.18   -5.98   -4.58    0.18204   -59.32  RIGHT     2.62149E-02  -106.96    4.24903E-02    96.26
   65.00    35.00     -10.27   -4.38   -3.38    0.16187   -64.26  RIGHT     2.59298E-02  -107.03    5.11324E-02    95.99
   65.00    40.00     -10.46   -2.95   -2.24    0.14123   -68.31  RIGHT     2.53846E-02  -107.05    6.02399E-02    95.71
   65.00    45.00     -10.76   -1.69   -1.18    0.12124   -71.72  RIGHT     2.45076E-02  -107.02    6.97021E-02    95.43
   65.00    50.00     -11.23   -0.56   -0.20    0.10225   -74.65  RIGHT     2.32332E-02  -106.88    7.93469E-02    95.16
   65.00    55.00     -11.90    0.43    0.68    0.08434   -77.23  RIGHT     2.15085E-02  -106.61    8.89441E-02    94.90
   65.00    60.00     -12.84    1.29    1.46    0.06740   -79.54  RIGHT     1.93002E-02  -106.12    9.82136E-02    94.65
   65.00    65.00     -14.15    2.02    2.13    0.05130   -81.66  RIGHT     1.66003E-02  -105.29    1.06841E-01    94.41
   65.00    70.00     -15.99    2.62    2.68    0.03586   -83.63  RIGHT     1.34326E-02  -103.83    1.14495E-01    94.20
   65.00    75.00     -18.67    3.09    3.12    0.02094   -85.49  RIGHT     9.85905E-03  -100.96    1.20855E-01    94.00
   65.00    80.00     -22.98    3.43    3.44    0.00637   -87.29  RIGHT     6.00646E-03   -93.84    1.25637E-01    93.83
   65.00    85.00     -31.00    3.64    3.64    0.00799   -89.04  LEFT      2.38438E-03   -60.78    1.28613E-01    93.67
   65.00    90.00     -27.95    3.70    3.71    0.02229    89.22  LEFT      3.38815E-03    35.00    1.29640E-01    93.54
   65.00    95.00     -21.17    3.64    3.65    0.03666    87.47  LEFT      7.39309E-03    53.69    1.28665E-01    93.43
   65.00   100.00     -17.35    3.44    3.47    0.05124    85.68  LEFT      1.14820E-02    58.98    1.25738E-01    93.33
   65.00   105.00     -14.83    3.11    3.17    0.06616    83.82  LEFT      1.53492E-02    61.42    1.21001E-01    93.26
   65.00   110.00     -13.04    2.64    2.75    0.08157    81.87  LEFT      1.88618E-02    62.81    1.14678E-01    93.21
   65.00   115.00     -11.73    2.04    2.22    0.09760    79.79  LEFT      2.19344E-02    63.73    1.07052E-01    93.18
   65.00   120.00     -10.76    1.31    1.57    0.11439    77.52  LEFT      2.45174E-02    64.39    9.84440E-02    93.17
   65.00   125.00     -10.05    0.46    0.82    0.13202    75.02  LEFT      2.65943E-02    64.90    8.91837E-02    93.18
   65.00   130.00      -9.55   -0.53   -0.02    0.15054    72.21  LEFT      2.81785E-02    65.32    7.95866E-02    93.21
   65.00   135.00      -9.21   -1.66   -0.95    0.16986    68.99  LEFT      2.93085E-02    65.67    6.99337E-02    93.26
   65.00   140.00      -9.00   -2.92   -1.96    0.18960    65.23  LEFT      3.00419E-02    65.98    6.04565E-02    93.32
   65.00   145.00      -8.88   -4.34   -3.03    0.20887    60.77  LEFT      3.04489E-02    66.26    5.13284E-02    93.39
   65.00   150.00      -8.83   -5.95   -4.15    0.22573    55.39  LEFT      3.06054E-02    66.51    4.26618E-02    93.47
   65.00   155.00      -8.84   -7.79   -5.27    0.23659    48.86  LEFT      3.05874E-02    66.72    3.45095E-02    93.56
   65.00   160.00      -8.87   -9.97   -6.38    0.23543    40.99  LEFT      3.04658E-02    66.91    2.68704E-02    93.63
   65.00   165.00      -8.92  -12.66   -7.39    0.21428    31.79  LEFT      3.03028E-02    67.07    1.96971E-02    93.70
   65.00   170.00      -8.97  -16.34   -8.23    0.16635    21.57  LEFT      3.01490E-02    67.18    1.29054E-02    93.76
   65.00   175.00      -9.00  -22.45   -8.80    0.09161    10.85  LEFT      3.00416E-02    67.25    6.38306E-03    93.79
   65.00   180.00      -9.01 -999.99   -9.01    0.00000     0.00  LINEAR    3.00033E-02    67.27    7.43824E-13   -86.20
   65.00   185.00      -9.00  -22.45   -8.80    0.09161   -10.85  RIGHT     3.00416E-02    67.25    6.38306E-03   -86.21
   65.00   190.00      -8.97  -16.34   -8.23    0.16635   -21.57  RIGHT     3.01490E-02    67.18    1.29054E-02   -86.24
   65.00   195.00      -8.92  -12.66   -7.39    0.21428   -31.79  RIGHT     3.03028E-02    67.07    1.96971E-02   -86.30
   65.00   200.00      -8.87   -9.97   -6.38    0.23543   -40.99  RIGHT     3.04658E-02    66.91    2.68704E-02   -86.37
   65.00   205.00      -8.84   -7.79   -5.27    0.23659   -48.86  RIGHT     3.05874E-02    66.72    3.45095E-02   -86.44
   65.00   210.00      -8.83   -5.95   -4.15    0.22573   -55.39  RIGHT     3.06054E-02    66.51    4.26618E-02   -86.53
   65.00   215.00      -8.88   -4.34   -3.03    0.20887   -60.77  RIGHT     3.04489E-02    66.26    5.13284E-02   -86.61
   65.00   220.00      -9.00   -2.92   -1.96    0.18960   -65.23  RIGHT     3.00419E-02    65.98    6.04565E-02   -86.68
   65.00   225.00      -9.21   -1.66   -0.95    0.16986   -68.99  RIGHT     2.93085E-02    65.67    6.99337E-02   -86.74
   65.00   230.00      -9.55   -0.53   -0.02    0.15054   -72.21  RIGHT     2.81785E-02    65.32    7.95866E-02   -86.79
   65.00   235.00     -10.05    0.46    0.82    0.13202   -75.02  RIGHT     2.65943E-02    64.90    8.91837E-02   -86.82
   65.00   240.00     -10.76    1.31    1.57    0.11439   -77.52  RIGHT     2.45174E-02    64.39    9.84440E-02   -86.83
   65.00   245.00     -11.73    2.04    2.22    0.09760   -79.79  RIGHT     2.19344E-02    63.73    1.07052E-01   -86.82
   65.00   250.00     -13.04    2.64    2.75    0.08157   -81.87  RIGHT     1.88618E-02    62.81    1.14678E-01   -86.79
   65.00   255.00     -14.83    3.11    3.17    0.06616   -83.82  RIGHT     1.53492E-02    61.42    1.21001E-01   -86.74
   65.00   260.00     -17.35    3.44    3.47    0.05124   -85.68  RIGHT     1.14820E-02    58.98    1.25738E-01   -86.67
   65.00   265.00     -21.17    3.64    3.65    0.03666   -87.47  RIGHT     7.39309E-03    53.69    1.28665E-01   -86.57
   65.00   270.00     -27.95    3.70    3.71    0.02229   -89.22  RIGHT     3.38815E-03    35.00    1.29640E-01   -86.46
   65.00   275.00     -31.00    3.64    3.64    0.00799    89.04  RIGHT     2.38438E-03   -60.78    1.28613E-01   -86.33
   65.00   280.00     -22.98    3.43    3.44    0.00637    87.29  LEFT      6.00646E-03   -93.84    1.25637E-01   -86.17
   65.00   285.00     -18.67    3.09    3.12    0.02094    85.49  LEFT      9.85905E-03  -100.96    1.20855E-01   -86.00
   65.00   290.00     -15.99    2.62    2.68    0.03586    83.63  LEFT      1.34326E-02  -103.83    1.14495E-01   -85.80
   65.00   295.00     -14.15    2.02    2.13    0.05130    81.66  LEFT      1.66003E-02  -105.29    1.06841E-01   -85.59
   65.00   300.00     -12.84    1.29    1.46    0.06740    79.54  LEFT      1.93002E-02  -106.12    9.82136E-02   -85.35
   65.00   305.00     -11.90    0.43    0.68    0.08434    77.23  LEFT      2.15085E-02  -106.61    8.89441E-02   -85.10
   65.00   310.00     -11.23   -0.56   -0.20    0.10225    74.65  LEFT      2.32332E-02  -106.88    7.93469E-02   -84.84
   65.00   315.00     -10.76   -1.69   -1.18    0.12124    71.72  LEFT      2.45076E-02  -107.02    6.97021E-02   -84.57
   65.00   320.00     -10.46   -2.95   -2.24    0.14123    68.31  LEFT      2.53846E-02  -107.05    6.02399E-02   -84.29
   65.00   325.00     -10.27   -4.38   -3.38    0.16187    64.26  LEFT      2.59298E-02  -107.03    5.11324E-02   -84.01
   65.00   330.00     -10.18   -5.98   -4.58    0.18204    59.32  LEFT      2.62149E-02  -106.96    4.24903E-02   -83.74
   65.00   335.00     -10.15   -7.83   -5.82    0.19918    53.20  LEFT      2.63122E-02  -106.87    3.43650E-02   -83.48
   65.00   340.00     -10.16  -10.00   -7.07    0.20807    45.55  LEFT      2.62894E-02  -106.77    2.67543E-02   -83.26
   65.00   345.00     -10.18  -12.70   -8.25    0.19977    36.10  LEFT      2.62061E-02  -106.67    1.96102E-02   -83.07
   65.00   350.00     -10.21  -16.37   -9.27    0.16331    24.97  LEFT      2.61107E-02  -106.60    1.28475E-02   -82.92
   65.00   355.00     -10.24  -22.49   -9.99    0.09344    12.71  LEFT      2.60389E-02  -106.54    6.35422E-03   -82.83
   65.00   360.00     -10.25 -999.99  -10.25    0.00000     0.00  LINEAR    2.60126E-02  -106.53    1.48091E-12    97.20




                                 - - - - - - FREQUENCY - - - - - -

                                    FREQUENCY= 7.1000E+00 MHZ
                                    WAVELENGTH= 4.2225E+01 METERS




                    APPROXIMATE INTEGRATION EMPLOYED FOR SEGMENTS MORE THAN   1.000 WAVELENGTHS APART

                    THE EXTENDED THIN WIRE KERNEL WILL BE USED



                               - - - STRUCTURE IMPEDANCE LOADING - - -


       LOCATION          RESISTANCE   INDUCTANCE  CAPACITANCE       IMPEDANCE (OHMS)     CONDUCTIVITY    TYPE
    ITAG FROM THRU          OHMS        HENRYS       FARADS        REAL      IMAGINARY    MHOS/METER

       1    1   19                                                                       5.8000E+07     WIRE  



                                  - - - ANTENNA ENVIRONMENT - - -

                                        FINITE GROUND.  SOMMERFELD SOLUTION
                                        RELATIVE DIELECTRIC CONST.= 13.000
                                        CONDUCTIVITY= 4.000E-03 MHOS/METER
                                        COMPLEX DIELECTRIC CONSTANT= 1.30000E+01-1.01273E+01



                                - - - MATRIX TIMING - - -

                        FILL=    0.000 SEC.,  FACTOR=    0.000 SEC.



                                          - - - ANTENNA INPUT PARAMETERS - - -

   TAG   SEG.    VOLTAGE (VOLTS)         CURRENT (AMPS)         IMPEDANCE (OHMS)        ADMITTANCE (MHOS)      POWER
   NO.   NO.    REAL        IMAG.       REAL        IMAG.       REAL        IMAG.       REAL        IMAG.     (WATTS)
     1    10 1.00000E+00 0.00000E+00 2.30779E-04-6.14096E-04 5.36231E+02 1.42689E+03 2.30779E-04-6.14096E-04 1.15390E-04



                             - - - CURRENTS AND LOCATION - - -

                                 DISTANCES IN WAVELENGTHS


  SEG.  TAG    COORD. OF SEG. CENTER     SEG.            - - - CURRENT (AMPS) - - -
  NO.   NO.     X        Y        Z      LENGTH     REAL        IMAG.       MAG.        PHASE
     1    1  -0.3544   0.0000   0.2657  0.03954   1.6184E-05 -1.3749E-04  1.3844E-04  -83.287
     2    1  -0.3149   0.0000   0.2673  0.03954   4.8807E-05 -3.8493E-04  3.8801E-04  -82.774
     3    1  -0.2754   0.0000   0.2688  0.03954   8.2169E-05 -5.9856E-04  6.0417E-04  -82.183
     4    1  -0.2358   0.0000   0.2704  0.03954   1.1526E-04 -7.7041E-04  7.7899E-04  -81.491
     5    1  -0.1963   0.0000   0.2719  0.03954   1.4665E-04 -8.9107E-04  9.0306E-04  -80.654
     6    1  -0.1568   0.0000   0.2735  0.03954   1.7484E-04 -9.5321E-04  9.6911E-04  -79.606
     7    1  -0.1173   0.0000   0.2750  0.03954   1.9843E-04 -9.5235E-04  9.7281E-04  -78.230
     8    1  -0.0778   0.0000   0.2766  0.03954   2.1621E-04 -8.8686E-04  9.1283E-04  -76.299
     9    1  -0.0383   0.0000   0.2782  0.03954   2.2722E-04 -7.5597E-04  7.8938E-04  -73.271
    10    1   0.0012   0.0000   0.2797  0.03954   2.3078E-04 -6.1410E-04  6.5603E-04  -69.404
    11    1   0.0407   0.0000   0.2813  0.03954   2.2665E-04 -7.5510E-04  7.8838E-04  -73.293
    12    1   0.0802   0.0000   0.2828  0.03954   2.1513E-04 -8.8519E-04  9.1096E-04  -76.340
    13    1   0.1197   0.0000   0.2844  0.03954   1.9693E-04 -9.5005E-04  9.7024E-04  -78.289
    14    1   0.1593   0.0000   0.2859  0.03954   1.7305E-04 -9.5047E-04  9.6609E-04  -79.681
    15    1   0.1988   0.0000   0.2875  0.03954   1.4475E-04 -8.8816E-04  8.9987E-04  -80.744
    16    1   0.2383   0.0000   0.2891  0.03954   1.1344E-04 -7.6762E-04  7.7596E-04  -81.594
    17    1   0.2778   0.0000   0.2906  0.03954   8.0621E-05 -5.9618E-04  6.0161E-04  -82.299
    18    1   0.3173   0.0000   0.2922  0.03954   4.7731E-05 -3.8327E-04  3.8624E-04  -82.901
    19    1   0.3568   0.0000   0.2937  0.03954   1.5772E-05 -1.3686E-04  1.3776E-04  -83.426



                                        - - - POWER BUDGET - - -

                                           INPUT POWER   = 1.1539E-04 WATTS
                                           RADIATED POWER= 1.0631E-04 WATTS
                                           STRUCTURE LOSS= 9.0833E-06 WATTS
                                           NETWORK LOSS  = 0.0000E+00 WATTS
                                           EFFICIENCY    =  92.13 PERCENT



                                                - - - RADIATION PATTERNS - - -

  - - ANGLES - -           - POWER GAINS -       - - - POLARIZATION - - -    - - - E(THETA) - - -    - - - E(PHI) - - -
  THETA     PHI        VERT.   HOR.    TOTAL      AXIAL     TILT   SENSE     MAGNITUDE    PHASE      MAGNITUDE    PHASE 
 DEGREES  DEGREES       DB      DB      DB        RATIO     DEG.              VOLTS/M    DEGREES      VOLTS/M    DEGREES
   65.00     0.00     -10.43 -999.99  -10.43    0.00000     0.00  LINEAR    2.50419E-02  -106.12    0.00000E+00     0.00
   65.00     5.00     -10.42  -22.60  -10.16    0.09336   -12.81  RIGHT     2.50741E-02  -106.14    6.16276E-03    97.40
   65.00    10.00     -10.38  -16.48   -9.43    0.16282   -25.15  RIGHT     2.51634E-02  -106.20    1.24701E-02    97.30
   65.00    15.00     -10.34  -12.80   -8.39    0.19864   -36.33  RIGHT     2.52877E-02  -106.29    1.90578E-02    97.14
   65.00    20.00     -10.30  -10.09   -7.18    0.20640   -45.77  RIGHT     2.54109E-02  -106.40    2.60434E-02    96.93
   65.00    25.00     -10.27   -7.89   -5.91    0.19723   -53.40  RIGHT     2.54839E-02  -106.52    3.35170E-02    96.68
   65.00    30.00     -10.29   -6.03   -4.65    0.18003   -59.49  RIGHT     2.54461E-02  -106.64    4.15314E-02    96.41
   65.00    35.00     -10.36   -4.40   -3.42    0.15995   -64.40  RIGHT     2.52285E-02  -106.73    5.00924E-02    96.11
   65.00    40.00     -10.53   -2.96   -2.26    0.13948   -68.43  RIGHT     2.47570E-02  -106.78    5.91513E-02    95.82
   65.00    45.00     -10.81   -1.67   -1.17    0.11970   -71.82  RIGHT     2.39577E-02  -106.76    6.85978E-02    95.52
   65.00    50.00     -11.26   -0.53   -0.18    0.10094   -74.74  RIGHT     2.27628E-02  -106.65    7.82587E-02    95.23
   65.00    55.00     -11.91    0.48    0.72    0.08326   -77.30  RIGHT     2.11170E-02  -106.40    8.79000E-02    94.95
   65.00    60.00     -12.83    1.36    1.52    0.06655   -79.60  RIGHT     1.89848E-02  -105.94    9.72357E-02    94.69
   65.00    65.00     -14.13    2.10    2.20    0.05068   -81.70  RIGHT     1.63564E-02  -105.14    1.05943E-01    94.44
   65.00    70.00     -15.95    2.71    2.77    0.03547   -83.66  RIGHT     1.32542E-02  -103.72    1.13681E-01    94.22
   65.00    75.00     -18.63    3.19    3.22    0.02078   -85.52  RIGHT     9.73913E-03  -100.92    1.20121E-01    94.02
   65.00    80.00     -22.93    3.54    3.55    0.00643   -87.31  RIGHT     5.93618E-03   -93.96    1.24967E-01    93.84
   65.00    85.00     -31.02    3.74    3.74    0.00771   -89.05  LEFT      2.33788E-03   -61.35    1.27986E-01    93.68
   65.00    90.00     -27.98    3.81    3.82    0.02178    89.22  LEFT      3.31827E-03    35.64    1.29028E-01    93.54
   65.00    95.00     -21.15    3.75    3.76    0.03593    87.47  LEFT      7.28557E-03    54.18    1.28039E-01    93.43
   65.00   100.00     -17.32    3.54    3.58    0.05028    85.69  LEFT      1.13258E-02    59.40    1.25071E-01    93.34
   65.00   105.00     -14.80    3.20    3.27    0.06497    83.85  LEFT      1.51378E-02    61.79    1.20269E-01    93.27
   65.00   110.00     -13.02    2.73    2.84    0.08014    81.90  LEFT      1.85887E-02    63.17    1.13867E-01    93.22
   65.00   115.00     -11.71    2.12    2.29    0.09593    79.83  LEFT      2.15931E-02    64.08    1.06156E-01    93.20
   65.00   120.00     -10.76    1.38    1.63    0.11246    77.58  LEFT      2.41019E-02    64.73    9.74680E-02    93.19
   65.00   125.00     -10.07    0.50    0.87    0.12983    75.09  LEFT      2.60998E-02    65.25    8.81412E-02    93.21
   65.00   130.00      -9.58   -0.50    0.00    0.14810    72.29  LEFT      2.76022E-02    65.67    7.84994E-02    93.25
   65.00   135.00      -9.26   -1.64   -0.95    0.16717    69.09  LEFT      2.86499E-02    66.03    6.88297E-02    93.31
   65.00   140.00      -9.06   -2.93   -1.98    0.18669    65.35  LEFT      2.93028E-02    66.35    5.93674E-02    93.39
   65.00   145.00      -8.96   -4.37   -3.08    0.20580    60.91  LEFT      2.96336E-02    66.64    5.02874E-02    93.47
   65.00   150.00      -8.94   -6.00   -4.21    0.22262    55.56  LEFT      2.97203E-02    66.90    4.17014E-02    93.57
   65.00   155.00      -8.96   -7.86   -5.36    0.23362    49.06  LEFT      2.96406E-02    67.14    3.36597E-02    93.67
   65.00   160.00      -9.01  -10.05   -6.49    0.23288    41.20  LEFT      2.94670E-02    67.34    2.61576E-02    93.76
   65.00   165.00      -9.07  -12.76   -7.53    0.21241    32.00  LEFT      2.92627E-02    67.50    1.91431E-02    93.84
   65.00   170.00      -9.13  -16.44   -8.39    0.16525    21.74  LEFT      2.90790E-02    67.63    1.25267E-02    93.90
   65.00   175.00      -9.17  -22.57   -8.97    0.09116    10.95  LEFT      2.89534E-02    67.70    6.19094E-03    93.95
   65.00   180.00      -9.18 -999.99   -9.18    0.00000     0.00  LINEAR    2.89090E-02    67.73    7.21244E-13   -86.04
   65.00   185.00      -9.17  -22.57   -8.97    0.09116   -10.95  RIGHT     2.89534E-02    67.70    6.19094E-03   -86.05
   65.00   190.00      -9.13  -16.44   -8.39    0.16525   -21.74  RIGHT     2.90790E-02    67.63    1.25267E-02   -86.10
   65.00   195.00      -9.07  -12.76   -7.53    0.21241   -32.00  RIGHT     2.92627E-02    67.50    1.91431E-02   -86.16
   65.00   200.00      -9.01  -10.05   -6.49    0.23288   -41.20  RIGHT     2.94670E-02    67.34    2.61576E-02   -86.24
   65.00   205.00      -8.96   -7.86   -5.36    0.23362   -49.06  RIGHT     2.96406E-02    67.14    3.36597E-02   -86.33
   65.00   210.00      -8.94   -6.00   -4.21    0.22262   -55.56  RIGHT     2.97203E-02    66.90    4.17014E-02   -86.43
   65.00   215.00      -8.96   -4.37   -3.08    0.20580   -60.91  RIGHT     2.96336E-02    66.64    5.02874E-02   -86.53
   65.00   220.00      -9.06   -2.93   -1.98    0.18669   -65.35  RIGHT     2.93028E-02    66.35    5.93674E-02   -86.61
   65.00   225.00      -9.26   -1.64   -0.95    0.16717   -69.09  RIGHT     2.86499E-02    66.03    6.88297E-02   -86.69
   65.00   230.00      -9.58   -0.50    0.00    0.14810   -72.29  RIGHT     2.76022E-02    65.67    7.84994E-02   -86.75
   65.00   235.00     -10.07    0.50    0.87    0.12983   -75.09  RIGHT     2.60998E-02    65.25    8.81412E-02   -86.79
   65.00   240.00     -10.76    1.38    1.63    0.11246   -77.58  RIGHT     2.41019E-02    64.73    9.74680E-02   -86.81
   65.00   245.00     -11.71    2.12    2.29    0.09593   -79.83  RIGHT     2.15931E-02    64.08    1.06156E-01   -86.80
   65.00   250.00     -13.02    2.73    2.84    0.08014   -81.90  RIGHT     1.85887E-02    63.17    1.13867E-01   -86.78
   65.00   255.00     -14.80    3.20    3.27    0.06497   -83.85  RIGHT     1.51378E-02    61.79    1.20269E-01   -86.73
   65.00   260.00     -17.32    3.54    3.58    0.05028   -85.69  RIGHT     1.13258E-02    59.40    1.25071E-01   -86.66
   65.00   265.00     -21.15    3.75    3.76    0.03593   -87.47  RIGHT     7.28557E-03    54.18    1.28039E-01   -86.57
   65.00   270.00     -27.98    3.81    3.82    0.02178   -89.22  RIGHT     3.31827E-03    35.64    1.29028E-01   -86.46
   65.00   275.00     -31.02    3.74    3.74    0.00771    89.05  RIGHT     2.33788E-03   -61.35    1.27986E-01   -86.32
   65.00   280.00     -22.93    3.54    3.55    0.00643    87.31  LEFT      5.93618E-03   -93.96    1.24967E-01   -86.16
   65.00   285.00     -18.63    3.19    3.22    0.02078    85.52  LEFT      9.73913E-03  -100.92    1.20121E-01   -85.98
   65.00   290.00     -15.95    2.71    2.77    0.03547    83.66  LEFT      1.32542E-02  -103.72    1.13681E-01   -85.78
   65.00   295.00     -14.13    2.10    2.20    0.05068    81.70  LEFT      1.63564E-02  -105.14    1.05943E-01   -85.56
   65.00   300.00     -12.83    1.36    1.52    0.06655    79.60  LEFT      1.89848E-02  -105.94    9.72357E-02   -85.31
   65.00   305.00     -11.91    0.48    0.72    0.08326    77.30  LEFT      2.11170E-02  -106.40    8.79000E-02   -85.05
   65.00   310.00     -11.26   -0.53   -0.18    0.10094    74.74  LEFT      2.27628E-02  -106.65    7.82587E-02   -84.77
   65.00   315.00     -10.81   -1.67   -1.17    0.11970    71.82  LEFT      2.39577E-02  -106.76    6.85978E-02   -84.48
   65.00   320.00     -10.53   -2.96   -2.26    0.13948    68.43  LEFT      2.47570E-02  -106.78    5.91513E-02   -84.18
   65.00   325.00     -10.36   -4.40   -3.42    0.15995    64.40  LEFT      2.52285E-02  -106.73    5.00924E-02   -83.89
   65.00   330.00     -10.29   -6.03   -4.65    0.18003    59.49  LEFT      2.54461E-02  -106.64    4.15314E-02   -83.59
   65.00   335.00     -10.27   -7.89   -5.91    0.19723    53.40  LEFT      2.54839E-02  -106.52    3.35170E-02   -83.32
   65.00   340.00     -10.30  -10.09   -7.18    0.20640    45.77  LEFT      2.54109E-02  -106.40    2.60434E-02   -83.07
   65.00   345.00     -10.34  -12.80   -8.39    0.19864    36.33  LEFT      2.52877E-02  -106.29    1.90578E-02   -82.86
   65.00   350.00     -10.38  -16.48   -9.43    0.16282    25.15  LEFT      2.51634E-02  -106.20    1.24701E-02   -82.70
   65.00   355.00     -10.42  -22.60  -10.16    0.09336    12.81  LEFT      2.50741E-02  -106.14    6.16276E-03   -82.60
   65.00   360.00     -10.43 -999.99  -10.43    0.00000     0.00  LINEAR    2.50419E-02  -106.12    1.43591E-12    97.43




                                 - - - - - - FREQUENCY - - - - - -

                                    FREQUENCY= 7.2000E+00 MHZ
                                    WAVELENGTH= 4.1639E+01 METERS




                    APPROXIMATE INTEGRATION EMPLOYED FOR SEGMENTS MORE THAN   1.000 WAVELENGTHS APART

                    THE EXTENDED THIN WIRE KERNEL WILL BE USED



                               - - - STRUCTURE IMPEDANCE LOADING - - -


       LOCATION          RESISTANCE   INDUCTANCE  CAPACITANCE       IMPEDANCE (OHMS)     CONDUCTIVITY    TYPE
    ITAG FROM THRU          OHMS        HENRYS       FARADS        REAL      IMAGINARY    MHOS/METER

       1    1   19                                                                       5.8000E+07     WIRE  



                                  - - - ANTENNA ENVIRONMENT - - -

                                        FINITE GROUND.  SOMMERFELD SOLUTION
                                        RELATIVE DIELECTRIC CONST.= 13.000
                                        CONDUCTIVITY= 4.000E-03 MHOS/METER
                                        COMPLEX DIELECTRIC CONSTANT= 1.30000E+01-9.98667E+00



                                - - - MATRIX TIMING - - -

                        FILL=    0.000 SEC.,  FACTOR=    0.000 SEC.



                                          - - - ANTENNA INPUT PARAMETERS - - -

   TAG   SEG.    VOLTAGE (VOLTS)         CURRENT (AMPS)         IMPEDANCE (OHMS)        ADMITTANCE (MHOS)      POWER
   NO.   NO.    REAL        IMAG.       REAL        IMAG.       REAL        IMAG.       REAL        IMAG.     (WATTS)
     1    10 1.00000E+00 0.00000E+00 2.23392E-04-5.75871E-04 5.85513E+02 1.50937E+03 2.23392E-04-5.75871E-04 1.11696E-04



                             - - - CURRENTS AND LOCATION - - -

                                 DISTANCES IN WAVELENGTHS


  SEG.  TAG    COORD. OF SEG. CENTER     SEG.            - - - CURRENT (AMPS) - - -
  NO.   NO.     X        Y        Z      LENGTH     REAL        IMAG.       MAG.        PHASE
     1    1  -0.3594   0.0000   0.2694  0.04010   1.5414E-05 -1.3579E-04  1.3666E-04  -83.524
     2    1  -0.3193   0.0000   0.2710  0.04010   4.6650E-05 -3.7998E-04  3.8283E-04  -83.001
     3    1  -0.2792   0.0000   0.2726  0.04010   7.8779E-05 -5.9021E-04  5.9545E-04  -82.397
     4    1  -0.2392   0.0000   0.2742  0.04010   1.1079E-04 -7.5830E-04  7.6635E-04  -81.687
     5    1  -0.1991   0.0000   0.2758  0.04010   1.4126E-04 -8.7473E-04  8.8607E-04  -80.826
     6    1  -0.1590   0.0000   0.2773  0.04010   1.6871E-04 -9.3223E-04  9.4738E-04  -79.742
     7    1  -0.1190   0.0000   0.2789  0.04010   1.9174E-04 -9.2649E-04  9.4612E-04  -78.307
     8    1  -0.0789   0.0000   0.2805  0.04010   2.0913E-04 -8.5612E-04  8.8130E-04  -76.273
     9    1  -0.0388   0.0000   0.2821  0.04010   2.1990E-04 -7.2074E-04  7.5354E-04  -73.033
    10    1   0.0012   0.0000   0.2837  0.04010   2.2339E-04 -5.7587E-04  6.1768E-04  -68.798
    11    1   0.0413   0.0000   0.2852  0.04010   2.1934E-04 -7.1978E-04  7.5246E-04  -73.052
    12    1   0.0814   0.0000   0.2868  0.04010   2.0806E-04 -8.5430E-04  8.7927E-04  -76.312
    13    1   0.1214   0.0000   0.2884  0.04010   1.9026E-04 -9.2396E-04  9.4335E-04  -78.364
    14    1   0.1615   0.0000   0.2900  0.04010   1.6696E-04 -9.2923E-04  9.4411E-04  -79.814
    15    1   0.2016   0.0000   0.2916  0.04010   1.3940E-04 -8.7154E-04  8.8262E-04  -80.913
    16    1   0.2416   0.0000   0.2931  0.04010   1.0901E-04 -7.5524E-04  7.6307E-04  -81.787
    17    1   0.2817   0.0000   0.2947  0.04010   7.7269E-05 -5.8762E-04  5.9268E-04  -82.509
    18    1   0.3218   0.0000   0.2963  0.04010   4.5603E-05 -3.7818E-04  3.8092E-04  -83.124
    19    1   0.3618   0.0000   0.2979  0.04010   1.5013E-05 -1.3510E-04  1.3593E-04  -83.659



                                        - - - POWER BUDGET - - -

                                           INPUT POWER   = 1.1170E-04 WATTS
                                           RADIATED POWER= 1.0305E-04 WATTS
                                           STRUCTURE LOSS= 8.6502E-06 WATTS
                                           NETWORK LOSS  = 0.0000E+00 WATTS
                                           EFFICIENCY    =  92.26 PERCENT



                                                - - - RADIATION PATTERNS - - -

  - - ANGLES - -           - POWER GAINS -       - - - POLARIZATION - - -    - - - E(THETA) - - -    - - - E(PHI) - - -
  THETA     PHI        VERT.   HOR.    TOTAL      AXIAL     TILT   SENSE     MAGNITUDE    PHASE      MAGNITUDE    PHASE 
 DEGREES  DEGREES       DB      DB      DB        RATIO     DEG.              VOLTS/M    DEGREES      VOLTS/M    DEGREES
   65.00     0.00     -10.62 -999.99  -10.62    0.00000     0.00  LINEAR    2.41049E-02  -105.68    0.00000E+00     0.00
   65.00     5.00     -10.60  -22.73  -10.34    0.09326   -12.92  RIGHT     2.41430E-02  -105.71    5.97614E-03    97.65
   65.00    10.00     -10.56  -16.60   -9.60    0.16229   -25.34  RIGHT     2.42497E-02  -105.77    1.21026E-02    97.54
   65.00    15.00     -10.51  -12.91   -8.53    0.19747   -36.55  RIGHT     2.44028E-02  -105.88    1.85206E-02    97.36
   65.00    20.00     -10.45  -10.18   -7.30    0.20471   -45.98  RIGHT     2.45658E-02  -106.01    2.53535E-02    97.14
   65.00    25.00     -10.41   -7.97   -6.01    0.19526   -53.59  RIGHT     2.46887E-02  -106.16    3.26965E-02    96.87
   65.00    30.00     -10.40   -6.09   -4.72    0.17801   -59.66  RIGHT     2.47102E-02  -106.30    4.06072E-02    96.57
   65.00    35.00     -10.45   -4.44   -3.47    0.15803   -64.54  RIGHT     2.45595E-02  -106.41    4.90956E-02    96.25
   65.00    40.00     -10.60   -2.97   -2.28    0.13774   -68.55  RIGHT     2.41609E-02  -106.48    5.81151E-02    95.93
   65.00    45.00     -10.86   -1.67   -1.17    0.11816   -71.92  RIGHT     2.34383E-02  -106.49    6.75564E-02    95.61
   65.00    50.00     -11.28   -0.50   -0.15    0.09963   -74.82  RIGHT     2.23214E-02  -106.40    7.72447E-02    95.31
   65.00    55.00     -11.92    0.53    0.77    0.08218   -77.37  RIGHT     2.07525E-02  -106.18    8.69421E-02    95.01
   65.00    60.00     -12.82    1.42    1.58    0.06571   -79.65  RIGHT     1.86938E-02  -105.75    9.63562E-02    94.74
   65.00    65.00     -14.10    2.18    2.28    0.05007   -81.75  RIGHT     1.61336E-02  -104.98    1.05155E-01    94.48
   65.00    70.00     -15.92    2.80    2.86    0.03509   -83.70  RIGHT     1.30929E-02  -103.60    1.12990E-01    94.25
   65.00    75.00     -18.58    3.29    3.32    0.02061   -85.55  RIGHT     9.63194E-03  -100.87    1.19519E-01    94.04
   65.00    80.00     -22.88    3.64    3.65    0.00648   -87.32  RIGHT     5.87387E-03   -94.06    1.24437E-01    93.85
   65.00    85.00     -31.04    3.85    3.85    0.00744   -89.06  LEFT      2.29556E-03   -61.90    1.27503E-01    93.69
   65.00    90.00     -28.01    3.92    3.93    0.02129    89.22  LEFT      3.25424E-03    36.28    1.28561E-01    93.55
   65.00    95.00     -21.13    3.86    3.87    0.03521    87.48  LEFT      7.18896E-03    54.68    1.27557E-01    93.44
   65.00   100.00     -17.29    3.65    3.68    0.04933    85.71  LEFT      1.11859E-02    59.82    1.24542E-01    93.35
   65.00   105.00     -14.77    3.30    3.37    0.06380    83.87  LEFT      1.49477E-02    62.18    1.19669E-01    93.28
   65.00   110.00     -12.99    2.82    2.93    0.07873    81.94  LEFT      1.83414E-02    63.54    1.13178E-01    93.24
   65.00   115.00     -11.70    2.20    2.37    0.09427    79.87  LEFT      2.12813E-02    64.43    1.05372E-01    93.22
   65.00   120.00     -10.76    1.44    1.69    0.11055    77.63  LEFT      2.37191E-02    65.09    9.65919E-02    93.23
   65.00   125.00     -10.08    0.55    0.91    0.12767    75.15  LEFT      2.56406E-02    65.60    8.71863E-02    93.26
   65.00   130.00      -9.61   -0.47    0.03    0.14568    72.37  LEFT      2.70630E-02    66.03    7.74878E-02    93.31
   65.00   135.00      -9.31   -1.64   -0.95    0.16450    69.18  LEFT      2.80297E-02    66.40    6.77899E-02    93.38
   65.00   140.00      -9.13   -2.94   -2.00    0.18381    65.47  LEFT      2.86031E-02    66.74    5.83320E-02    93.47
   65.00   145.00      -9.05   -4.40   -3.12    0.20274    61.05  LEFT      2.88582E-02    67.04    4.92907E-02    93.57
   65.00   150.00      -9.05   -6.05   -4.29    0.21951    55.72  LEFT      2.88754E-02    67.32    4.07767E-02    93.68
   65.00   155.00      -9.09   -7.93   -5.46    0.23064    49.24  LEFT      2.87344E-02    67.57    3.28382E-02    93.79
   65.00   160.00      -9.16  -10.14   -6.61    0.23029    41.41  LEFT      2.85090E-02    67.79    2.54664E-02    93.90
   65.00   165.00      -9.23  -12.87   -7.67    0.21048    32.20  LEFT      2.82634E-02    67.97    1.86047E-02    94.00
   65.00   170.00      -9.30  -16.56   -8.55    0.16410    21.91  LEFT      2.80497E-02    68.10    1.21582E-02    94.07
   65.00   175.00      -9.34  -22.69   -9.15    0.09067    11.04  LEFT      2.79061E-02    68.19    6.00380E-03    94.12
   65.00   180.00      -9.36 -999.99   -9.36    0.00000     0.00  LINEAR    2.78556E-02    68.21    6.99243E-13   -85.86
   65.00   185.00      -9.34  -22.69   -9.15    0.09067   -11.04  RIGHT     2.79061E-02    68.19    6.00380E-03   -85.88
   65.00   190.00      -9.30  -16.56   -8.55    0.16410   -21.91  RIGHT     2.80497E-02    68.10    1.21582E-02   -85.93
   65.00   195.00      -9.23  -12.87   -7.67    0.21048   -32.20  RIGHT     2.82634E-02    67.97    1.86047E-02   -86.00
   65.00   200.00      -9.16  -10.14   -6.61    0.23029   -41.41  RIGHT     2.85090E-02    67.79    2.54664E-02   -86.10
   65.00   205.00      -9.09   -7.93   -5.46    0.23064   -49.24  RIGHT     2.87344E-02    67.57    3.28382E-02   -86.21
   65.00   210.00      -9.05   -6.05   -4.29    0.21951   -55.72  RIGHT     2.88754E-02    67.32    4.07767E-02   -86.32
   65.00   215.00      -9.05   -4.40   -3.12    0.20274   -61.05  RIGHT     2.88582E-02    67.04    4.92907E-02   -86.43
   65.00   220.00      -9.13   -2.94   -2.00    0.18381   -65.47  RIGHT     2.86031E-02    66.74    5.83320E-02   -86.53
   65.00   225.00      -9.31   -1.64   -0.95    0.16450   -69.18  RIGHT     2.80297E-02    66.40    6.77899E-02   -86.62
   65.00   230.00      -9.61   -0.47    0.03    0.14568   -72.37  RIGHT     2.70630E-02    66.03    7.74878E-02   -86.69
   65.00   235.00     -10.08    0.55    0.91    0.12767   -75.15  RIGHT     2.56406E-02    65.60    8.71863E-02   -86.74
   65.00   240.00     -10.76    1.44    1.69    0.11055   -77.63  RIGHT     2.37191E-02    65.09    9.65919E-02   -86.77
   65.00   245.00     -11.70    2.20    2.37    0.09427   -79.87  RIGHT     2.12813E-02    64.43    1.05372E-01   -86.78
   65.00   250.00     -12.99    2.82    2.93    0.07873   -81.94  RIGHT     1.83414E-02    63.54    1.13178E-01   -86.76
   65.00   255.00     -14.77    3.30    3.37    0.06380   -83.87  RIGHT     1.49477E-02    62.18    1.19669E-01   -86.72
   65.00   260.00     -17.29    3.65    3.68    0.04933   -85.71  RIGHT     1.11859E-02    59.82    1.24542E-01   -86.65
   65.00   265.00     -21.13    3.86    3.87    0.03521   -87.48  RIGHT     7.18896E-03    54.68    1.27557E-01   -86.56
   65.00   270.00     -28.01    3.92    3.93    0.02129   -89.22  RIGHT     3.25424E-03    36.28    1.28561E-01   -86.45
   65.00   275.00     -31.04    3.85    3.85    0.00744    89.06  RIGHT     2.29556E-03   -61.90    1.27503E-01   -86.31
   65.00   280.00     -22.88    3.64    3.65    0.00648    87.32  LEFT      5.87387E-03   -94.06    1.24437E-01   -86.15
   65.00   285.00     -18.58    3.29    3.32    0.02061    85.55  LEFT      9.63194E-03  -100.87    1.19519E-01   -85.96
   65.00   290.00     -15.92    2.80    2.86    0.03509    83.70  LEFT      1.30929E-02  -103.60    1.12990E-01   -85.75
   65.00   295.00     -14.10    2.18    2.28    0.05007    81.75  LEFT      1.61336E-02  -104.98    1.05155E-01   -85.52
   65.00   300.00     -12.82    1.42    1.58    0.06571    79.65  LEFT      1.86938E-02  -105.75    9.63562E-02   -85.26
   65.00   305.00     -11.92    0.53    0.77    0.08218    77.37  LEFT      2.07525E-02  -106.18    8.69421E-02   -84.99
   65.00   310.00     -11.28   -0.50   -0.15    0.09963    74.82  LEFT      2.23214E-02  -106.40    7.72447E-02   -84.69
   65.00   315.00     -10.86   -1.67   -1.17    0.11816    71.92  LEFT      2.34383E-02  -106.49    6.75564E-02   -84.39
   65.00   320.00     -10.60   -2.97   -2.28    0.13774    68.55  LEFT      2.41609E-02  -106.48    5.81151E-02   -84.07
   65.00   325.00     -10.45   -4.44   -3.47    0.15803    64.54  LEFT      2.45595E-02  -106.41    4.90956E-02   -83.75
   65.00   330.00     -10.40   -6.09   -4.72    0.17801    59.66  LEFT      2.47102E-02  -106.30    4.06072E-02   -83.43
   65.00   335.00     -10.41   -7.97   -6.01    0.19526    53.59  LEFT      2.46887E-02  -106.16    3.26965E-02   -83.13
   65.00   340.00     -10.45  -10.18   -7.30    0.20471    45.98  LEFT      2.45658E-02  -106.01    2.53535E-02   -82.86
   65.00   345.00     -10.51  -12.91   -8.53    0.19747    36.55  LEFT      2.44028E-02  -105.88    1.85206E-02   -82.64
   65.00   350.00     -10.56  -16.60   -9.60    0.16229    25.34  LEFT      2.42497E-02  -105.77    1.21026E-02   -82.46
   65.00   355.00     -10.60  -22.73  -10.34    0.09326    12.92  LEFT      2.41430E-02  -105.71    5.97614E-03   -82.35
   65.00   360.00     -10.62 -999.99  -10.62    0.00000     0.00  LINEAR    2.41049E-02  -105.68    1.39203E-12    97.68




                                 - - - - - - FREQUENCY - - - - - -

                                    FREQUENCY= 7.3000E+00 MHZ
                                    WAVELENGTH= 4.1068E+01 METERS




                    APPROXIMATE INTEGRATION EMPLOYED FOR SEGMENTS MORE THAN   1.000 WAVELENGTHS APART

                    THE EXTENDED THIN WIRE KERNEL WILL BE USED



                               - - - STRUCTURE IMPEDANCE LOADING - - -


       LOCATION          RESISTANCE   INDUCTANCE  CAPACITANCE       IMPEDANCE (OHMS)     CONDUCTIVITY    TYPE
    ITAG FROM THRU          OHMS        HENRYS       FARADS        REAL      IMAGINARY    MHOS/METER

       1    1   19                                                                       5.8000E+07     WIRE  



                                  - - - ANTENNA ENVIRONMENT - - -

                                        FINITE GROUND.  SOMMERFELD SOLUTION
                                        RELATIVE DIELECTRIC CONST.= 13.000
                                        CONDUCTIVITY= 4.000E-03 MHOS/METER
                                        COMPLEX DIELECTRIC CONSTANT= 1.30000E+01-9.84987E+00



                                - - - MATRIX TIMING - - -

                        FILL=    0.016 SEC.,  FACTOR=    0.000 SEC.



                                          - - - ANTENNA INPUT PARAMETERS - - -

   TAG   SEG.    VOLTAGE (VOLTS)         CURRENT (AMPS)         IMPEDANCE (OHMS)        ADMITTANCE (MHOS)      POWER
   NO.   NO.    REAL        IMAG.       REAL        IMAG.       REAL        IMAG.       REAL        IMAG.     (WATTS)
     1    10 1.00000E+00 0.00000E+00 2.16656E-04-5.39626E-04 6.40736E+02 1.59588E+03 2.16656E-04-5.39626E-04 1.08328E-04



                             - - - CURRENTS AND LOCATION - - -

                                 DISTANCES IN WAVELENGTHS


  SEG.  TAG    COORD. OF SEG. CENTER     SEG.            - - - CURRENT (AMPS) - - -
  NO.   NO.     X        Y        Z      LENGTH     REAL        IMAG.       MAG.        PHASE
     1    1  -0.3644   0.0000   0.2732  0.04065   1.4699E-05 -1.3432E-04  1.3512E-04  -83.755
     2    1  -0.3237   0.0000   0.2748  0.04065   4.4652E-05 -3.7568E-04  3.7833E-04  -83.222
     3    1  -0.2831   0.0000   0.2764  0.04065   7.5644E-05 -5.8289E-04  5.8778E-04  -82.606
     4    1  -0.2425   0.0000   0.2780  0.04065   1.0667E-04 -7.4752E-04  7.5510E-04  -81.879
     5    1  -0.2019   0.0000   0.2796  0.04065   1.3631E-04 -8.5998E-04  8.7072E-04  -80.993
     6    1  -0.1612   0.0000   0.2812  0.04065   1.6309E-04 -9.1303E-04  9.2748E-04  -79.872
     7    1  -0.1206   0.0000   0.2828  0.04065   1.8562E-04 -9.0251E-04  9.2140E-04  -78.378
     8    1  -0.0800   0.0000   0.2844  0.04065   2.0265E-04 -8.2735E-04  8.5180E-04  -76.237
     9    1  -0.0394   0.0000   0.2860  0.04065   2.1323E-04 -6.8748E-04  7.1979E-04  -72.768
    10    1   0.0012   0.0000   0.2876  0.04065   2.1666E-04 -5.3963E-04  5.8149E-04  -68.125
    11    1   0.0419   0.0000   0.2892  0.04065   2.1268E-04 -6.8643E-04  7.1862E-04  -72.785
    12    1   0.0825   0.0000   0.2908  0.04065   2.0162E-04 -8.2534E-04  8.4961E-04  -76.273
    13    1   0.1231   0.0000   0.2924  0.04065   1.8418E-04 -8.9974E-04  9.1840E-04  -78.431
    14    1   0.1637   0.0000   0.2940  0.04065   1.6139E-04 -9.0974E-04  9.2395E-04  -79.940
    15    1   0.2044   0.0000   0.2956  0.04065   1.3450E-04 -8.5650E-04  8.6699E-04  -81.075
    16    1   0.2450   0.0000   0.2972  0.04065   1.0494E-04 -7.4419E-04  7.5155E-04  -81.973
    17    1   0.2856   0.0000   0.2988  0.04065   7.4183E-05 -5.8007E-04  5.8479E-04  -82.712
    18    1   0.3262   0.0000   0.3004  0.04065   4.3641E-05 -3.7372E-04  3.7626E-04  -83.340
    19    1   0.3669   0.0000   0.3020  0.04065   1.4313E-05 -1.3357E-04  1.3433E-04  -83.883



                                        - - - POWER BUDGET - - -

                                           INPUT POWER   = 1.0833E-04 WATTS
                                           RADIATED POWER= 1.0007E-04 WATTS
                                           STRUCTURE LOSS= 8.2624E-06 WATTS
                                           NETWORK LOSS  = 0.0000E+00 WATTS
                                           EFFICIENCY    =  92.37 PERCENT



                                                - - - RADIATION PATTERNS - - -

  - - ANGLES - -           - POWER GAINS -       - - - POLARIZATION - - -    - - - E(THETA) - - -    - - - E(PHI) - - -
  THETA     PHI        VERT.   HOR.    TOTAL      AXIAL     TILT   SENSE     MAGNITUDE    PHASE      MAGNITUDE    PHASE 
 DEGREES  DEGREES       DB      DB      DB        RATIO     DEG.              VOLTS/M    DEGREES      VOLTS/M    DEGREES
   65.00     0.00     -10.82 -999.99  -10.82    0.00000     0.00  LINEAR    2.31959E-02  -105.22    0.00000E+00     0.00
   65.00     5.00     -10.80  -22.87  -10.54    0.09314   -13.02  RIGHT     2.32398E-02  -105.25    5.79315E-03    97.92
   65.00    10.00     -10.75  -16.73   -9.78    0.16173   -25.52  RIGHT     2.33639E-02  -105.33    1.17424E-02    97.80
   65.00    15.00     -10.69  -13.02   -8.69    0.19627   -36.76  RIGHT     2.35458E-02  -105.45    1.79949E-02    97.61
   65.00    20.00     -10.61  -10.28   -7.43    0.20298   -46.20  RIGHT     2.37485E-02  -105.60    2.46797E-02    97.36
   65.00    25.00     -10.55   -8.05   -6.11    0.19328   -53.78  RIGHT     2.39214E-02  -105.77    3.18975E-02    97.07
   65.00    30.00     -10.52   -6.15   -4.80    0.17599   -59.82  RIGHT     2.40019E-02  -105.94    3.97108E-02    96.75
   65.00    35.00     -10.55   -4.48   -3.52    0.15611   -64.68  RIGHT     2.39179E-02  -106.08    4.81336E-02    96.41
   65.00    40.00     -10.67   -2.99   -2.31    0.13600   -68.66  RIGHT     2.35917E-02  -106.18    5.71221E-02    96.06
   65.00    45.00     -10.91   -1.66   -1.17    0.11663   -72.02  RIGHT     2.29451E-02  -106.21    6.65677E-02    95.72
   65.00    50.00     -11.32   -0.48   -0.13    0.09833   -74.90  RIGHT     2.19051E-02  -106.15    7.62940E-02    95.39
   65.00    55.00     -11.93    0.57    0.81    0.08111   -77.43  RIGHT     2.04116E-02  -105.95    8.60588E-02    95.08
   65.00    60.00     -12.82    1.48    1.64    0.06487   -79.71  RIGHT     1.84242E-02  -105.54    9.55629E-02    94.79
   65.00    65.00     -14.08    2.25    2.35    0.04945   -81.79  RIGHT     1.59295E-02  -104.81    1.04466E-01    94.52
   65.00    70.00     -15.88    2.89    2.95    0.03469   -83.73  RIGHT     1.29470E-02  -103.47    1.12407E-01    94.28
   65.00    75.00     -18.54    3.39    3.42    0.02044   -85.57  RIGHT     9.53616E-03  -100.81    1.19034E-01    94.07
   65.00    80.00     -22.83    3.74    3.75    0.00653   -87.34  RIGHT     5.81872E-03   -94.14    1.24032E-01    93.87
   65.00    85.00     -31.06    3.96    3.96    0.00717   -89.07  LEFT      2.25699E-03   -62.45    1.27149E-01    93.71
   65.00    90.00     -28.04    4.03    4.04    0.02081    89.21  LEFT      3.19548E-03    36.94    1.28226E-01    93.57
   65.00    95.00     -21.10    3.96    3.98    0.03451    87.49  LEFT      7.10218E-03    55.19    1.27205E-01    93.45
   65.00   100.00     -17.25    3.75    3.79    0.04841    85.72  LEFT      1.10605E-02    60.24    1.24139E-01    93.36
   65.00   105.00     -14.73    3.40    3.47    0.06264    83.89  LEFT      1.47765E-02    62.57    1.19188E-01    93.30
   65.00   110.00     -12.96    2.90    3.02    0.07734    81.97  LEFT      1.81170E-02    63.91    1.12600E-01    93.26
   65.00   115.00     -11.68    2.27    2.44    0.09264    79.91  LEFT      2.09959E-02    64.80    1.04688E-01    93.25
   65.00   120.00     -10.75    1.50    1.75    0.10867    77.68  LEFT      2.33652E-02    65.45    9.58035E-02    93.26
   65.00   125.00     -10.09    0.60    0.95    0.12554    75.21  LEFT      2.52123E-02    65.97    8.63075E-02    93.30
   65.00   130.00      -9.64   -0.45    0.05    0.14330    72.44  LEFT      2.65563E-02    66.41    7.65410E-02    93.37
   65.00   135.00      -9.36   -1.63   -0.95    0.16187    69.27  LEFT      2.74429E-02    66.79    6.68044E-02    93.45
   65.00   140.00      -9.20   -2.96   -2.03    0.18094    65.58  LEFT      2.79374E-02    67.14    5.73414E-02    93.56
   65.00   145.00      -9.15   -4.44   -3.18    0.19971    61.18  LEFT      2.81172E-02    67.46    4.83301E-02    93.68
   65.00   150.00      -9.16   -6.11   -4.36    0.21640    55.88  LEFT      2.80651E-02    67.75    3.98808E-02    93.81
   65.00   155.00      -9.23   -8.01   -5.57    0.22765    49.43  LEFT      2.78627E-02    68.02    3.20391E-02    93.94
   65.00   160.00      -9.31  -10.24   -6.74    0.22767    41.61  LEFT      2.75854E-02    68.26    2.47921E-02    94.07
   65.00   165.00      -9.40  -12.98   -7.82    0.20849    32.40  LEFT      2.72985E-02    68.45    1.80784E-02    94.18
   65.00   170.00      -9.48  -16.69   -8.72    0.16289    22.07  LEFT      2.70549E-02    68.60    1.17975E-02    94.27
   65.00   175.00      -9.53  -22.83   -9.33    0.09015    11.13  LEFT      2.68931E-02    68.69    5.82046E-03    94.32
   65.00   180.00      -9.55 -999.99   -9.55    0.00000     0.00  LINEAR    2.68366E-02    68.72    6.77684E-13   -85.66
   65.00   185.00      -9.53  -22.83   -9.33    0.09015   -11.13  RIGHT     2.68931E-02    68.69    5.82046E-03   -85.68
   65.00   190.00      -9.48  -16.69   -8.72    0.16289   -22.07  RIGHT     2.70549E-02    68.60    1.17975E-02   -85.73
   65.00   195.00      -9.40  -12.98   -7.82    0.20849   -32.40  RIGHT     2.72985E-02    68.45    1.80784E-02   -85.82
   65.00   200.00      -9.31  -10.24   -6.74    0.22767   -41.61  RIGHT     2.75854E-02    68.26    2.47921E-02   -85.93
   65.00   205.00      -9.23   -8.01   -5.57    0.22765   -49.43  RIGHT     2.78627E-02    68.02    3.20391E-02   -86.06
   65.00   210.00      -9.16   -6.11   -4.36    0.21640   -55.88  RIGHT     2.80651E-02    67.75    3.98808E-02   -86.19
   65.00   215.00      -9.15   -4.44   -3.18    0.19971   -61.18  RIGHT     2.81172E-02    67.46    4.83301E-02   -86.32
   65.00   220.00      -9.20   -2.96   -2.03    0.18094   -65.58  RIGHT     2.79374E-02    67.14    5.73414E-02   -86.44
   65.00   225.00      -9.36   -1.63   -0.95    0.16187   -69.27  RIGHT     2.74429E-02    66.79    6.68044E-02   -86.55
   65.00   230.00      -9.64   -0.45    0.05    0.14330   -72.44  RIGHT     2.65563E-02    66.41    7.65410E-02   -86.63
   65.00   235.00     -10.09    0.60    0.95    0.12554   -75.21  RIGHT     2.52123E-02    65.97    8.63075E-02   -86.70
   65.00   240.00     -10.75    1.50    1.75    0.10867   -77.68  RIGHT     2.33652E-02    65.45    9.58035E-02   -86.74
   65.00   245.00     -11.68    2.27    2.44    0.09264   -79.91  RIGHT     2.09959E-02    64.80    1.04688E-01   -86.75
   65.00   250.00     -12.96    2.90    3.02    0.07734   -81.97  RIGHT     1.81170E-02    63.91    1.12600E-01   -86.74
   65.00   255.00     -14.73    3.40    3.47    0.06264   -83.89  RIGHT     1.47765E-02    62.57    1.19188E-01   -86.70
   65.00   260.00     -17.25    3.75    3.79    0.04841   -85.72  RIGHT     1.10605E-02    60.24    1.24139E-01   -86.64
   65.00   265.00     -21.10    3.96    3.98    0.03451   -87.49  RIGHT     7.10218E-03    55.19    1.27205E-01   -86.55
   65.00   270.00     -28.04    4.03    4.04    0.02081   -89.21  RIGHT     3.19548E-03    36.94    1.28226E-01   -86.43
   65.00   275.00     -31.06    3.96    3.96    0.00717    89.07  RIGHT     2.25699E-03   -62.45    1.27149E-01   -86.29
   65.00   280.00     -22.83    3.74    3.75    0.00653    87.34  LEFT      5.81872E-03   -94.14    1.24032E-01   -86.13
   65.00   285.00     -18.54    3.39    3.42    0.02044    85.57  LEFT      9.53616E-03  -100.81    1.19034E-01   -85.93
   65.00   290.00     -15.88    2.89    2.95    0.03469    83.73  LEFT      1.29470E-02  -103.47    1.12407E-01   -85.72
   65.00   295.00     -14.08    2.25    2.35    0.04945    81.79  LEFT      1.59295E-02  -104.81    1.04466E-01   -85.48
   65.00   300.00     -12.82    1.48    1.64    0.06487    79.71  LEFT      1.84242E-02  -105.54    9.55629E-02   -85.21
   65.00   305.00     -11.93    0.57    0.81    0.08111    77.43  LEFT      2.04116E-02  -105.95    8.60588E-02   -84.92
   65.00   310.00     -11.32   -0.48   -0.13    0.09833    74.90  LEFT      2.19051E-02  -106.15    7.62940E-02   -84.61
   65.00   315.00     -10.91   -1.66   -1.17    0.11663    72.02  LEFT      2.29451E-02  -106.21    6.65677E-02   -84.28
   65.00   320.00     -10.67   -2.99   -2.31    0.13600    68.66  LEFT      2.35917E-02  -106.18    5.71221E-02   -83.94
   65.00   325.00     -10.55   -4.48   -3.52    0.15611    64.68  LEFT      2.39179E-02  -106.08    4.81336E-02   -83.59
   65.00   330.00     -10.52   -6.15   -4.80    0.17599    59.82  LEFT      2.40019E-02  -105.94    3.97108E-02   -83.25
   65.00   335.00     -10.55   -8.05   -6.11    0.19328    53.78  LEFT      2.39214E-02  -105.77    3.18975E-02   -82.93
   65.00   340.00     -10.61  -10.28   -7.43    0.20298    46.20  LEFT      2.37485E-02  -105.60    2.46797E-02   -82.64
   65.00   345.00     -10.69  -13.02   -8.69    0.19627    36.76  LEFT      2.35458E-02  -105.45    1.79949E-02   -82.39
   65.00   350.00     -10.75  -16.73   -9.78    0.16173    25.52  LEFT      2.33639E-02  -105.33    1.17424E-02   -82.20
   65.00   355.00     -10.80  -22.87  -10.54    0.09314    13.02  LEFT      2.32398E-02  -105.25    5.79315E-03   -82.08
   65.00   360.00     -10.82 -999.99  -10.82    0.00000     0.00  LINEAR    2.31959E-02  -105.22    1.34900E-12    97.96




                                 - - - - - - FREQUENCY - - - - - -

                                    FREQUENCY= 7.4000E+00 MHZ
                                    WAVELENGTH= 4.0514E+01 METERS




                    APPROXIMATE INTEGRATION EMPLOYED FOR SEGMENTS MORE THAN   1.000 WAVELENGTHS APART

                    THE EXTENDED THIN WIRE KERNEL WILL BE USED



                               - - - STRUCTURE IMPEDANCE LOADING - - -


       LOCATION          RESISTANCE   INDUCTANCE  CAPACITANCE       IMPEDANCE (OHMS)     CONDUCTIVITY    TYPE
    ITAG FROM THRU          OHMS        HENRYS       FARADS        REAL      IMAGINARY    MHOS/METER

       1    1   19                                                                       5.8000E+07     WIRE  



                                  - - - ANTENNA ENVIRONMENT - - -

                                        FINITE GROUND.  SOMMERFELD SOLUTION
                                        RELATIVE DIELECTRIC CONST.= 13.000
                                        CONDUCTIVITY= 4.000E-03 MHOS/METER
                                        COMPLEX DIELECTRIC CONSTANT= 1.30000E+01-9.71676E+00



                                - - - MATRIX TIMING - - -

                        FILL=    0.000 SEC.,  FACTOR=    0.000 SEC.



                                          - - - ANTENNA INPUT PARAMETERS - - -

   TAG   SEG.    VOLTAGE (VOLTS)         CURRENT (AMPS)         IMPEDANCE (OHMS)        ADMITTANCE (MHOS)      POWER
   NO.   NO.    REAL        IMAG.       REAL        IMAG.       REAL        IMAG.       REAL        IMAG.     (WATTS)
     1    10 1.00000E+00 0.00000E+00 2.10490E-04-5.05138E-04 7.02875E+02 1.68677E+03 2.10490E-04-5.05138E-04 1.05245E-04



                             - - - CURRENTS AND LOCATION - - -

                                 DISTANCES IN WAVELENGTHS


  SEG.  TAG    COORD. OF SEG. CENTER     SEG.            - - - CURRENT (AMPS) - - -
  NO.   NO.     X        Y        Z      LENGTH     REAL        IMAG.       MAG.        PHASE
     1    1  -0.3693   0.0000   0.2769  0.04121   1.4031E-05 -1.3306E-04  1.3380E-04  -83.980
     2    1  -0.3282   0.0000   0.2785  0.04121   4.2790E-05 -3.7199E-04  3.7444E-04  -83.438
     3    1  -0.2870   0.0000   0.2802  0.04121   7.2730E-05 -5.7651E-04  5.8108E-04  -82.810
     4    1  -0.2458   0.0000   0.2818  0.04121   1.0285E-04 -7.3798E-04  7.4511E-04  -82.066
     5    1  -0.2046   0.0000   0.2834  0.04121   1.3173E-04 -8.4668E-04  8.5687E-04  -81.157
     6    1  -0.1635   0.0000   0.2850  0.04121   1.5791E-04 -8.9543E-04  9.0925E-04  -79.999
     7    1  -0.1223   0.0000   0.2867  0.04121   1.7998E-04 -8.8024E-04  8.9845E-04  -78.444
     8    1  -0.0811   0.0000   0.2883  0.04121   1.9671E-04 -8.0031E-04  8.2413E-04  -76.191
     9    1  -0.0399   0.0000   0.2899  0.04121   2.0711E-04 -6.5598E-04  6.8790E-04  -72.478
    10    1   0.0013   0.0000   0.2915  0.04121   2.1049E-04 -5.0514E-04  5.4724E-04  -67.379
    11    1   0.0424   0.0000   0.2932  0.04121   2.0658E-04 -6.5483E-04  6.8664E-04  -72.491
    12    1   0.0836   0.0000   0.2948  0.04121   1.9571E-04 -7.9812E-04  8.2176E-04  -76.222
    13    1   0.1248   0.0000   0.2964  0.04121   1.7860E-04 -8.7720E-04  8.9520E-04  -78.492
    14    1   0.1660   0.0000   0.2980  0.04121   1.5627E-04 -8.9183E-04  9.0542E-04  -80.061
    15    1   0.2072   0.0000   0.2996  0.04121   1.2999E-04 -8.4287E-04  8.5283E-04  -81.232
    16    1   0.2483   0.0000   0.3013  0.04121   1.0119E-04 -7.3433E-04  7.4127E-04  -82.154
    17    1   0.2895   0.0000   0.3029  0.04121   7.1331E-05 -5.7343E-04  5.7785E-04  -82.909
    18    1   0.3307   0.0000   0.3045  0.04121   4.1824E-05 -3.6985E-04  3.7221E-04  -83.548
    19    1   0.3719   0.0000   0.3061  0.04121   1.3664E-05 -1.3224E-04  1.3295E-04  -84.101



                                        - - - POWER BUDGET - - -

                                           INPUT POWER   = 1.0525E-04 WATTS
                                           RADIATED POWER= 9.7331E-05 WATTS
                                           STRUCTURE LOSS= 7.9143E-06 WATTS
                                           NETWORK LOSS  = 0.0000E+00 WATTS
                                           EFFICIENCY    =  92.48 PERCENT



                                                - - - RADIATION PATTERNS - - -

  - - ANGLES - -           - POWER GAINS -       - - - POLARIZATION - - -    - - - E(THETA) - - -    - - - E(PHI) - - -
  THETA     PHI        VERT.   HOR.    TOTAL      AXIAL     TILT   SENSE     MAGNITUDE    PHASE      MAGNITUDE    PHASE 
 DEGREES  DEGREES       DB      DB      DB        RATIO     DEG.              VOLTS/M    DEGREES      VOLTS/M    DEGREES
   65.00     0.00     -11.03 -999.99  -11.03    0.00000     0.00  LINEAR    2.23098E-02  -104.73    0.00000E+00     0.00
   65.00     5.00     -11.01  -23.02  -10.75    0.09300   -13.13  RIGHT     2.23596E-02  -104.76    5.61274E-03    98.22
   65.00    10.00     -10.96  -16.87   -9.97    0.16113   -25.70  RIGHT     2.25011E-02  -104.85    1.13876E-02    98.09
   65.00    15.00     -10.88  -13.15   -8.86    0.19503   -36.98  RIGHT     2.27119E-02  -104.99    1.74776E-02    97.88
   65.00    20.00     -10.78  -10.39   -7.57    0.20123   -46.41  RIGHT     2.29543E-02  -105.17    2.40178E-02    97.61
   65.00    25.00     -10.70   -8.14   -6.22    0.19128   -53.97  RIGHT     2.31772E-02  -105.36    3.11146E-02    97.29
   65.00    30.00     -10.65   -6.22   -4.88    0.17397   -59.98  RIGHT     2.33167E-02  -105.56    3.88357E-02    96.94
   65.00    35.00     -10.65   -4.52   -3.57    0.15419   -64.81  RIGHT     2.32994E-02  -105.73    4.71993E-02    96.57
   65.00    40.00     -10.75   -3.01   -2.34    0.13426   -68.78  RIGHT     2.30455E-02  -105.86    5.61642E-02    96.20
   65.00    45.00     -10.97   -1.66   -1.18    0.11511   -72.11  RIGHT     2.24744E-02  -105.92    6.56227E-02    95.84
   65.00    50.00     -11.35   -0.45   -0.11    0.09703   -74.98  RIGHT     2.15106E-02  -105.88    7.53967E-02    95.49
   65.00    55.00     -11.94    0.61    0.85    0.08005   -77.50  RIGHT     2.00913E-02  -105.71    8.52396E-02    95.16
   65.00    60.00     -12.81    1.54    1.70    0.06403   -79.76  RIGHT     1.81736E-02  -105.33    9.48451E-02    94.85
   65.00    65.00     -14.06    2.33    2.43    0.04884   -81.83  RIGHT     1.57421E-02  -104.63    1.03863E-01    94.57
   65.00    70.00     -15.85    2.98    3.03    0.03430   -83.77  RIGHT     1.28149E-02  -103.33    1.11921E-01    94.32
   65.00    75.00     -18.49    3.49    3.51    0.02026   -85.60  RIGHT     9.45065E-03  -100.73    1.18656E-01    94.09
   65.00    80.00     -22.78    3.85    3.86    0.00657   -87.36  RIGHT     5.77005E-03   -94.22    1.23740E-01    93.90
   65.00    85.00     -31.07    4.07    4.07    0.00692   -89.08  LEFT      2.22180E-03   -62.99    1.26914E-01    93.73
   65.00    90.00     -28.06    4.14    4.15    0.02034    89.21  LEFT      3.14146E-03    37.61    1.28011E-01    93.58
   65.00    95.00     -21.07    4.07    4.09    0.03382    87.49  LEFT      7.02430E-03    55.70    1.26971E-01    93.47
   65.00   100.00     -17.21    3.86    3.89    0.04750    85.74  LEFT      1.09482E-02    60.68    1.23851E-01    93.38
   65.00   105.00     -14.70    3.50    3.56    0.06151    83.92  LEFT      1.46226E-02    62.96    1.18815E-01    93.32
   65.00   110.00     -12.94    2.99    3.10    0.07598    82.00  LEFT      1.79133E-02    64.29    1.12120E-01    93.29
   65.00   115.00     -11.67    2.35    2.52    0.09104    79.95  LEFT      2.07340E-02    65.17    1.04091E-01    93.29
   65.00   120.00     -10.75    1.56    1.81    0.10682    77.73  LEFT      2.30372E-02    65.82    9.50925E-02    93.31
   65.00   125.00     -10.11    0.64    0.99    0.12344    75.27  LEFT      2.48114E-02    66.35    8.54950E-02    93.36
   65.00   130.00      -9.68   -0.42    0.06    0.14094    72.52  LEFT      2.60780E-02    66.79    7.56498E-02    93.44
   65.00   135.00      -9.41   -1.63   -0.96    0.15926    69.36  LEFT      2.68852E-02    67.19    6.58645E-02    93.54
   65.00   140.00      -9.28   -2.98   -2.06    0.17811    65.68  LEFT      2.73010E-02    67.55    5.63875E-02    93.66
   65.00   145.00      -9.24   -4.49   -3.23    0.19669    61.31  LEFT      2.74056E-02    67.89    4.73986E-02    93.80
   65.00   150.00      -9.28   -6.18   -4.45    0.21330    56.03  LEFT      2.72841E-02    68.21    3.90077E-02    93.95
   65.00   155.00      -9.37   -8.10   -5.68    0.22464    49.60  LEFT      2.70202E-02    68.50    3.12573E-02    94.11
   65.00   160.00      -9.47  -10.35   -6.88    0.22500    41.81  LEFT      2.66909E-02    68.75    2.41306E-02    94.25
   65.00   165.00      -9.58  -13.11   -7.99    0.20645    32.60  LEFT      2.63626E-02    68.97    1.75611E-02    94.38
   65.00   170.00      -9.67  -16.83   -8.91    0.16162    22.23  LEFT      2.60890E-02    69.13    1.14424E-02    94.48
   65.00   175.00      -9.73  -22.98   -9.53    0.08959    11.22  LEFT      2.59091E-02    69.23    5.63990E-03    94.55
   65.00   180.00      -9.75 -999.99   -9.75    0.00000     0.00  LINEAR    2.58464E-02    69.26    6.56447E-13   -85.43
   65.00   185.00      -9.73  -22.98   -9.53    0.08959   -11.22  RIGHT     2.59091E-02    69.23    5.63990E-03   -85.45
   65.00   190.00      -9.67  -16.83   -8.91    0.16162   -22.23  RIGHT     2.60890E-02    69.13    1.14424E-02   -85.52
   65.00   195.00      -9.58  -13.11   -7.99    0.20645   -32.60  RIGHT     2.63626E-02    68.97    1.75611E-02   -85.62
   65.00   200.00      -9.47  -10.35   -6.88    0.22500   -41.81  RIGHT     2.66909E-02    68.75    2.41306E-02   -85.75
   65.00   205.00      -9.37   -8.10   -5.68    0.22464   -49.60  RIGHT     2.70202E-02    68.50    3.12573E-02   -85.89
   65.00   210.00      -9.28   -6.18   -4.45    0.21330   -56.03  RIGHT     2.72841E-02    68.21    3.90077E-02   -86.05
   65.00   215.00      -9.24   -4.49   -3.23    0.19669   -61.31  RIGHT     2.74056E-02    67.89    4.73986E-02   -86.20
   65.00   220.00      -9.28   -2.98   -2.06    0.17811   -65.68  RIGHT     2.73010E-02    67.55    5.63875E-02   -86.34
   65.00   225.00      -9.41   -1.63   -0.96    0.15926   -69.36  RIGHT     2.68852E-02    67.19    6.58645E-02   -86.46
   65.00   230.00      -9.68   -0.42    0.06    0.14094   -72.52  RIGHT     2.60780E-02    66.79    7.56498E-02   -86.56
   65.00   235.00     -10.11    0.64    0.99    0.12344   -75.27  RIGHT     2.48114E-02    66.35    8.54950E-02   -86.64
   65.00   240.00     -10.75    1.56    1.81    0.10682   -77.73  RIGHT     2.30372E-02    65.82    9.50925E-02   -86.69
   65.00   245.00     -11.67    2.35    2.52    0.09104   -79.95  RIGHT     2.07340E-02    65.17    1.04091E-01   -86.71
   65.00   250.00     -12.94    2.99    3.10    0.07598   -82.00  RIGHT     1.79133E-02    64.29    1.12120E-01   -86.71
   65.00   255.00     -14.70    3.50    3.56    0.06151   -83.92  RIGHT     1.46226E-02    62.96    1.18815E-01   -86.68
   65.00   260.00     -17.21    3.86    3.89    0.04750   -85.74  RIGHT     1.09482E-02    60.68    1.23851E-01   -86.62
   65.00   265.00     -21.07    4.07    4.09    0.03382   -87.49  RIGHT     7.02430E-03    55.70    1.26971E-01   -86.53
   65.00   270.00     -28.06    4.14    4.15    0.02034   -89.21  RIGHT     3.14146E-03    37.61    1.28011E-01   -86.42
   65.00   275.00     -31.07    4.07    4.07    0.00692    89.08  RIGHT     2.22180E-03   -62.99    1.26914E-01   -86.27
   65.00   280.00     -22.78    3.85    3.86    0.00657    87.36  LEFT      5.77005E-03   -94.22    1.23740E-01   -86.10
   65.00   285.00     -18.49    3.49    3.51    0.02026    85.60  LEFT      9.45065E-03  -100.73    1.18656E-01   -85.91
   65.00   290.00     -15.85    2.98    3.03    0.03430    83.77  LEFT      1.28149E-02  -103.33    1.11921E-01   -85.68
   65.00   295.00     -14.06    2.33    2.43    0.04884    81.83  LEFT      1.57421E-02  -104.63    1.03863E-01   -85.43
   65.00   300.00     -12.81    1.54    1.70    0.06403    79.76  LEFT      1.81736E-02  -105.33    9.48451E-02   -85.15
   65.00   305.00     -11.94    0.61    0.85    0.08005    77.50  LEFT      2.00913E-02  -105.71    8.52396E-02   -84.84
   65.00   310.00     -11.35   -0.45   -0.11    0.09703    74.98  LEFT      2.15106E-02  -105.88    7.53967E-02   -84.51
   65.00   315.00     -10.97   -1.66   -1.18    0.11511    72.11  LEFT      2.24744E-02  -105.92    6.56227E-02   -84.16
   65.00   320.00     -10.75   -3.01   -2.34    0.13426    68.78  LEFT      2.30455E-02  -105.86    5.61642E-02   -83.80
   65.00   325.00     -10.65   -4.52   -3.57    0.15419    64.81  LEFT      2.32994E-02  -105.73    4.71993E-02   -83.43
   65.00   330.00     -10.65   -6.22   -4.88    0.17397    59.98  LEFT      2.33167E-02  -105.56    3.88357E-02   -83.06
   65.00   335.00     -10.70   -8.14   -6.22    0.19128    53.97  LEFT      2.31772E-02  -105.36    3.11146E-02   -82.71
   65.00   340.00     -10.78  -10.39   -7.57    0.20123    46.41  LEFT      2.29543E-02  -105.17    2.40178E-02   -82.39
   65.00   345.00     -10.88  -13.15   -8.86    0.19503    36.98  LEFT      2.27119E-02  -104.99    1.74776E-02   -82.12
   65.00   350.00     -10.96  -16.87   -9.97    0.16113    25.70  LEFT      2.25011E-02  -104.85    1.13876E-02   -81.91
   65.00   355.00     -11.01  -23.02  -10.75    0.09300    13.13  LEFT      2.23596E-02  -104.76    5.61274E-03   -81.78
   65.00   360.00     -11.03 -999.99  -11.03    0.00000     0.00  LINEAR    2.23098E-02  -104.73    1.30656E-12    98.27




                                 - - - - - - FREQUENCY - - - - - -

                                    FREQUENCY= 7.5000E+00 MHZ
                                    WAVELENGTH= 3.9973E+01 METERS




                    APPROXIMATE INTEGRATION EMPLOYED FOR SEGMENTS MORE THAN   1.000 WAVELENGTHS APART

                    THE EXTENDED THIN WIRE KERNEL WILL BE USED



                               - - - STRUCTURE IMPEDANCE LOADING - - -


       LOCATION          RESISTANCE   INDUCTANCE  CAPACITANCE       IMPEDANCE (OHMS)     CONDUCTIVITY    TYPE
    ITAG FROM THRU          OHMS        HENRYS       FARADS        REAL      IMAGINARY    MHOS/METER

       1    1   19                                                                       5.8000E+07     WIRE  



                                  - - - ANTENNA ENVIRONMENT - - -

                                        FINITE GROUND.  SOMMERFELD SOLUTION
                                        RELATIVE DIELECTRIC CONST.= 13.000
                                        CONDUCTIVITY= 4.000E-03 MHOS/METER
                                        COMPLEX DIELECTRIC CONSTANT= 1.30000E+01-9.58720E+00



                                - - - MATRIX TIMING - - -

                        FILL=    0.016 SEC.,  FACTOR=    0.000 SEC.



                                          - - - ANTENNA INPUT PARAMETERS - - -

   TAG   SEG.    VOLTAGE (VOLTS)         CURRENT (AMPS)         IMPEDANCE (OHMS)        ADMITTANCE (MHOS)      POWER
   NO.   NO.    REAL        IMAG.       REAL        IMAG.       REAL        IMAG.       REAL        IMAG.     (WATTS)
     1    10 1.00000E+00 0.00000E+00 2.04823E-04-4.72211E-04 7.73106E+02 1.78236E+03 2.04823E-04-4.72211E-04 1.02412E-04



                             - - - CURRENTS AND LOCATION - - -

                                 DISTANCES IN WAVELENGTHS


  SEG.  TAG    COORD. OF SEG. CENTER     SEG.            - - - CURRENT (AMPS) - - -
[...]
   65.00   115.00     -10.35    5.00    5.13    0.07957    81.41  RIGHT     3.23321E-02   121.55    1.89340E-01    93.09
   65.00   120.00      -7.90    5.57    5.77    0.09105    79.16  RIGHT     4.28815E-02   121.56    2.02276E-01    95.12
   65.00   125.00      -6.99    4.74    5.03    0.10198    76.61  RIGHT     4.76016E-02   122.83    1.83823E-01    98.26
   65.00   130.00      -7.53    2.52    2.93    0.10981    73.56  RIGHT     4.47636E-02   125.90    1.42265E-01   103.62
   65.00   135.00      -9.73   -1.38   -0.78    0.10453    69.80  RIGHT     3.47331E-02   132.94    9.08535E-02   114.89
   65.00   140.00     -14.24   -6.93   -6.19    0.04697    66.81  RIGHT     2.06525E-02   154.09    4.79327E-02   146.68
   65.00   145.00     -16.51   -7.62   -7.09    0.07590    70.65  RIGHT     1.59046E-02  -138.19    4.42907E-02  -151.92
   65.00   150.00     -10.62   -4.32   -3.41    0.17328    65.60  RIGHT     3.13384E-02   -98.19    6.47402E-02  -123.59
   65.00   155.00      -6.52   -2.72   -1.21    0.21314    58.39  RIGHT     5.02615E-02   -86.87    7.78285E-02  -113.44
   65.00   160.00      -3.98   -2.64   -0.25    0.23218    49.92  RIGHT     6.73221E-02   -82.19    7.85850E-02  -108.67
   65.00   165.00      -2.37   -3.85   -0.03    0.22950    39.61  RIGHT     8.10503E-02   -79.81    6.83808E-02  -106.06
   65.00   170.00      -1.37   -6.57   -0.22    0.19233    27.37  RIGHT     9.09251E-02   -78.51    4.99669E-02  -104.57
   65.00   175.00      -0.82  -12.16   -0.52    0.11194    13.88  RIGHT     9.68291E-02   -77.84    2.62625E-02  -103.79
   65.00   180.00      -0.65 -999.99   -0.65    0.00000     0.00  LINEAR    9.87887E-02   -77.64    3.12077E-12    76.45
   65.00   185.00      -0.82  -12.16   -0.52    0.11194   -13.88  LEFT      9.68291E-02   -77.84    2.62625E-02    76.21
   65.00   190.00      -1.37   -6.57   -0.22    0.19233   -27.37  LEFT      9.09251E-02   -78.51    4.99669E-02    75.43
   65.00   195.00      -2.37   -3.85   -0.03    0.22950   -39.61  LEFT      8.10503E-02   -79.81    6.83808E-02    73.94
   65.00   200.00      -3.98   -2.64   -0.25    0.23218   -49.92  LEFT      6.73221E-02   -82.19    7.85850E-02    71.33
   65.00   205.00      -6.52   -2.72   -1.21    0.21314   -58.39  LEFT      5.02615E-02   -86.87    7.78285E-02    66.56
   65.00   210.00     -10.62   -4.32   -3.41    0.17328   -65.60  LEFT      3.13384E-02   -98.19    6.47402E-02    56.41
   65.00   215.00     -16.51   -7.62   -7.09    0.07590   -70.65  LEFT      1.59046E-02  -138.19    4.42907E-02    28.08
   65.00   220.00     -14.24   -6.93   -6.19    0.04697   -66.81  LEFT      2.06525E-02   154.09    4.79327E-02   -33.32
   65.00   225.00      -9.73   -1.38   -0.78    0.10453   -69.80  LEFT      3.47331E-02   132.94    9.08535E-02   -65.11
   65.00   230.00      -7.53    2.52    2.93    0.10981   -73.56  LEFT      4.47636E-02   125.90    1.42265E-01   -76.38
   65.00   235.00      -6.99    4.74    5.03    0.10198   -76.61  LEFT      4.76016E-02   122.83    1.83823E-01   -81.74
   65.00   240.00      -7.90    5.57    5.77    0.09105   -79.16  LEFT      4.28815E-02   121.56    2.02276E-01   -84.88
   65.00   245.00     -10.35    5.00    5.13    0.07957   -81.41  LEFT      3.23321E-02   121.55    1.89340E-01   -86.91
   65.00   250.00     -14.85    2.68    2.75    0.06845   -83.49  LEFT      1.92727E-02   123.22    1.44918E-01   -88.20
   65.00   255.00     -22.98   -2.61   -2.57    0.05893   -85.68  LEFT      7.55369E-03   130.00    7.88451E-02   -88.21
   65.00   260.00     -38.92  -20.43  -20.37    0.11543    88.37  LEFT      1.20497E-03  -140.82    1.01371E-02   -64.45
   65.00   265.00     -31.43   -7.65   -7.63    0.03202   -86.78  LEFT      2.85607E-03   -72.79    4.41403E-02    77.44
   65.00   270.00     -35.49   -4.49   -4.49    0.02129   -88.94  LEFT      1.78951E-03   -56.06    6.34833E-02    74.86
   65.00   275.00     -43.96   -7.31   -7.30    0.01035    89.40  LEFT      6.74840E-04    14.62    4.59143E-02    59.39
   65.00   280.00     -39.24  -10.41  -10.40    0.00152    87.93  LEFT      1.16209E-03   -30.52    3.21176E-02   -28.12
   65.00   285.00     -25.10   -1.40   -1.38    0.00920    86.30  RIGHT     5.91798E-03   -62.18    9.06246E-02   -70.32
   65.00   290.00     -17.36    3.14    3.18    0.02064    84.74  RIGHT     1.44224E-02   -65.96    1.52845E-01   -78.70
   65.00   295.00     -12.94    5.17    5.23    0.03249    83.15  RIGHT     2.40131E-02   -66.51    1.93002E-01   -81.87
   65.00   300.00     -10.62    5.52    5.63    0.04511    81.52  RIGHT     3.13392E-02   -66.05    2.01095E-01   -83.26
   65.00   305.00     -10.04    4.45    4.60    0.05901    79.84  RIGHT     3.35266E-02   -64.78    1.77680E-01   -83.61
   65.00   310.00     -11.26    1.82    2.03    0.07545    78.21  RIGHT     2.91283E-02   -62.01    1.31233E-01   -82.78
   65.00   315.00     -15.19   -3.14   -2.88    0.10029    77.10  RIGHT     1.85281E-02   -54.19    7.41419E-02   -79.15
   65.00   320.00     -24.63  -14.36  -13.97    0.24680    79.66  RIGHT     6.24591E-03     2.54    2.03746E-02   -53.57
   65.00   325.00     -15.41  -10.44   -9.24    0.13251    61.18  RIGHT     1.80690E-02    88.18    3.20117E-02    70.46
   65.00   330.00      -9.28   -4.59   -3.32    0.13089    60.32  RIGHT     3.65788E-02    98.49    6.27327E-02    81.29
   65.00   335.00      -5.89   -2.66   -0.97    0.14643    55.90  RIGHT     5.40446E-02   101.80    7.83924E-02    83.93
   65.00   340.00      -3.77   -2.51   -0.09    0.15973    49.36  RIGHT     6.89677E-02   103.36    7.97260E-02    85.01
   65.00   345.00      -2.41   -3.71    0.00    0.16252    40.48  RIGHT     8.06730E-02   104.21    6.94322E-02    85.54
   65.00   350.00      -1.56   -6.44   -0.34    0.14212    28.98  RIGHT     8.89563E-02   104.70    5.07070E-02    85.81
   65.00   355.00      -1.09  -12.04   -0.76    0.08620    15.13  RIGHT     9.38564E-02   104.96    2.66354E-02    85.94
   65.00   360.00      -0.95 -999.99   -0.95    0.00000     0.00  LINEAR    9.54742E-02   105.04    6.32865E-12   -94.02




                                 - - - - - - FREQUENCY - - - - - -

                                    FREQUENCY= 2.2000E+01 MHZ
                                    WAVELENGTH= 1.3627E+01 METERS




                    APPROXIMATE INTEGRATION EMPLOYED FOR SEGMENTS MORE THAN   1.000 WAVELENGTHS APART

                    THE EXTENDED THIN WIRE KERNEL WILL BE USED



                               - - - STRUCTURE IMPEDANCE LOADING - - -


       LOCATION          RESISTANCE   INDUCTANCE  CAPACITANCE       IMPEDANCE (OHMS)     CONDUCTIVITY    TYPE
    ITAG FROM THRU          OHMS        HENRYS       FARADS        REAL      IMAGINARY    MHOS/METER

       1    1   19                                                                       5.8000E+07     WIRE  



                                  - - - ANTENNA ENVIRONMENT - - -

                                        FINITE GROUND.  SOMMERFELD SOLUTION
                                        RELATIVE DIELECTRIC CONST.= 13.000
                                        CONDUCTIVITY= 4.000E-03 MHOS/METER
                                        COMPLEX DIELECTRIC CONSTANT= 1.30000E+01-3.26836E+00



                                - - - MATRIX TIMING - - -

                        FILL=    0.000 SEC.,  FACTOR=    0.000 SEC.



                                          - - - ANTENNA INPUT PARAMETERS - - -

   TAG   SEG.    VOLTAGE (VOLTS)         CURRENT (AMPS)         IMPEDANCE (OHMS)        ADMITTANCE (MHOS)      POWER
   NO.   NO.    REAL        IMAG.       REAL        IMAG.       REAL        IMAG.       REAL        IMAG.     (WATTS)
     1    10 1.00000E+00 0.00000E+00 4.17715E-04 1.33970E-03 2.12116E+02-6.80301E+02 4.17715E-04 1.33970E-03 2.08857E-04



                             - - - CURRENTS AND LOCATION - - -

                                 DISTANCES IN WAVELENGTHS


  SEG.  TAG    COORD. OF SEG. CENTER     SEG.            - - - CURRENT (AMPS) - - -
  NO.   NO.     X        Y        Z      LENGTH     REAL        IMAG.       MAG.        PHASE
     1    1  -1.0981   0.0000   0.8233  0.12252   1.2260E-04  6.6534E-04  6.7655E-04   79.559
     2    1  -0.9756   0.0000   0.8281  0.12252   2.4587E-04  1.5439E-03  1.5633E-03   80.951
     3    1  -0.8532   0.0000   0.8329  0.12252   1.7905E-04  1.5269E-03  1.5373E-03   83.312
     4    1  -0.7308   0.0000   0.8378  0.12252  -2.2592E-05  6.5138E-04  6.5177E-04   91.986
     5    1  -0.6084   0.0000   0.8426  0.12252  -2.2634E-04 -5.8658E-04  6.2873E-04 -111.100
     6    1  -0.4859   0.0000   0.8474  0.12252  -2.9784E-04 -1.4935E-03  1.5229E-03 -101.278
     7    1  -0.3635   0.0000   0.8522  0.12252  -1.8064E-04 -1.5627E-03  1.5732E-03  -96.594
     8    1  -0.2411   0.0000   0.8571  0.12252   6.9322E-05 -7.5400E-04  7.5718E-04  -84.747
     9    1  -0.1187   0.0000   0.8619  0.12252   3.1506E-04  4.9290E-04  5.8499E-04   57.413
    10    1   0.0038   0.0000   0.8667  0.12252   4.1771E-04  1.3397E-03  1.4033E-03   72.683
    11    1   0.1262   0.0000   0.8715  0.12252   3.1829E-04  4.8944E-04  5.8383E-04   56.964
    12    1   0.2486   0.0000   0.8764  0.12252   7.4488E-05 -7.5868E-04  7.6233E-04  -84.393
    13    1   0.3710   0.0000   0.8812  0.12252  -1.7551E-04 -1.5655E-03  1.5753E-03  -96.397
    14    1   0.4935   0.0000   0.8860  0.12252  -2.9454E-04 -1.4920E-03  1.5207E-03 -101.168
    15    1   0.6159   0.0000   0.8909  0.12252  -2.2573E-04 -5.8059E-04  6.2293E-04 -111.246
    16    1   0.7383   0.0000   0.8957  0.12252  -2.4333E-05  6.5965E-04  6.6010E-04   92.113
    17    1   0.8607   0.0000   0.9005  0.12252   1.7622E-04  1.5343E-03  1.5444E-03   83.448
    18    1   0.9832   0.0000   0.9053  0.12252   2.4345E-04  1.5481E-03  1.5671E-03   81.063
    19    1   1.1056   0.0000   0.9102  0.12252   1.2168E-04  6.6626E-04  6.7728E-04   79.650



                                        - - - POWER BUDGET - - -

                                           INPUT POWER   = 2.0886E-04 WATTS
                                           RADIATED POWER= 1.7325E-04 WATTS
                                           STRUCTURE LOSS= 3.5609E-05 WATTS
                                           NETWORK LOSS  = 0.0000E+00 WATTS
                                           EFFICIENCY    =  82.95 PERCENT



                                                - - - RADIATION PATTERNS - - -

  - - ANGLES - -           - POWER GAINS -       - - - POLARIZATION - - -    - - - E(THETA) - - -    - - - E(PHI) - - -
  THETA     PHI        VERT.   HOR.    TOTAL      AXIAL     TILT   SENSE     MAGNITUDE    PHASE      MAGNITUDE    PHASE 
 DEGREES  DEGREES       DB      DB      DB        RATIO     DEG.              VOLTS/M    DEGREES      VOLTS/M    DEGREES
   65.00     0.00      -0.60 -999.99   -0.60    0.00000     0.00  LINEAR    1.04427E-01   104.92    0.00000E+00     0.00
   65.00     5.00      -0.74  -11.70   -0.41    0.08797   -15.08  LEFT      1.02735E-01   104.84    2.91122E-02   -94.60
   65.00    10.00      -1.19   -6.08    0.03    0.14520   -28.91  LEFT      9.76035E-02   104.61    5.55661E-02   -94.70
   65.00    15.00      -2.00   -3.31    0.41    0.16619   -40.45  LEFT      8.89044E-02   104.17    7.64547E-02   -94.93
   65.00    20.00      -3.30   -2.04    0.39    0.16337   -49.37  LEFT      7.65630E-02   103.40    8.85167E-02   -95.36
   65.00    25.00      -5.31   -2.06   -0.37    0.14961   -55.98  LEFT      6.07525E-02   102.02    8.83216E-02   -96.24
   65.00    30.00      -8.48   -3.72   -2.47    0.13294   -60.57  LEFT      4.21341E-02    99.21    7.28884E-02   -98.34
   65.00    35.00     -14.06   -8.72   -7.60    0.12524   -62.21  LEFT      2.21716E-02    91.17    4.10236E-02  -105.97
   65.00    40.00     -24.99  -17.40  -16.70    0.36689   -78.64  LEFT      6.30069E-03    28.16    1.51032E-02   142.65
   65.00    45.00     -16.24   -4.08   -3.83    0.10555   -77.42  LEFT      1.72529E-02   -52.54    6.99282E-02   100.79
   65.00    50.00     -11.75    1.34    1.55    0.07780   -78.28  LEFT      2.89350E-02   -61.94    1.30640E-01    96.57
   65.00    55.00     -10.32    4.16    4.31    0.06062   -79.86  LEFT      3.41104E-02   -64.99    1.80614E-01    95.67
   65.00    60.00     -10.81    5.32    5.43    0.04629   -81.52  LEFT      3.22504E-02   -66.34    2.06519E-01    96.02
   65.00    65.00     -13.07    5.01    5.07    0.03332   -83.15  LEFT      2.48387E-02   -66.81    1.99116E-01    97.47
   65.00    70.00     -17.50    2.97    3.01    0.02115   -84.73  LEFT      1.49144E-02   -66.19    1.57580E-01   100.79
   65.00    75.00     -25.33   -1.66   -1.64    0.00935   -86.29  LEFT      6.05966E-03   -62.05    9.24503E-02   109.71
   65.00    80.00     -39.55  -10.71  -10.71    0.00185   -87.93  RIGHT     1.17898E-03   -26.27    3.25989E-02   156.68
   65.00    85.00     -43.32   -6.71   -6.71    0.01065   -89.41  RIGHT     7.63499E-04    14.37    5.17042E-02  -119.46
   65.00    90.00     -34.88   -4.00   -3.99    0.02170    88.94  RIGHT     2.01824E-03   -55.67    7.06332E-02  -105.11
   65.00    95.00     -30.78   -6.97   -6.95    0.03239    86.81  RIGHT     3.23511E-03   -71.95    5.01600E-02  -102.20
   65.00   100.00     -38.37  -23.51  -23.37    0.17223   -86.86  RIGHT     1.35033E-03  -128.63    7.46995E-03   124.22
   65.00   105.00     -23.31   -2.95   -2.91    0.06044    85.74  RIGHT     7.64274E-03   130.19    7.97256E-02    90.84
   65.00   110.00     -14.98    2.50    2.57    0.07004    83.50  RIGHT     1.99451E-02   123.02    1.49194E-01    90.97
   65.00   115.00     -10.46    4.84    4.97    0.08133    81.39  RIGHT     3.35776E-02   121.32    1.95401E-01    92.37
   65.00   120.00      -8.03    5.39    5.58    0.09295    79.12  RIGHT     4.44149E-02   121.38    2.08069E-01    94.54
   65.00   125.00      -7.18    4.49    4.77    0.10384    76.53  RIGHT     4.89393E-02   122.77    1.87561E-01    97.90
   65.00   130.00      -7.84    2.13    2.55    0.11094    73.43  RIGHT     4.53728E-02   126.13    1.42983E-01   103.79
   65.00   135.00     -10.29   -2.00   -1.40    0.10174    69.61  RIGHT     3.42397E-02   134.14    8.89129E-02   116.67
   65.00   140.00     -15.18   -7.51   -6.82    0.03426    67.61  RIGHT     1.94923E-02   160.10    4.71555E-02   154.54
   65.00   145.00     -15.69   -6.80   -6.27    0.09995    70.94  RIGHT     1.83888E-02  -127.27    5.11618E-02  -145.39
   65.00   150.00      -9.67   -3.57   -2.61    0.18386    65.22  RIGHT     3.67547E-02   -95.13    7.42212E-02  -121.69
   65.00   155.00      -5.82   -2.14   -0.59    0.21969    58.04  RIGHT     5.72910E-02   -85.66    8.74302E-02  -112.86
   65.00   160.00      -3.41   -2.17    0.26    0.23732    49.59  RIGHT     7.55362E-02   -81.57    8.71927E-02  -108.57
   65.00   165.00      -1.88   -3.44    0.42    0.23342    39.28  RIGHT     9.01220E-02   -79.44    7.53023E-02  -106.18
   65.00   170.00      -0.93   -6.21    0.20    0.19476    27.09  RIGHT     1.00570E-01   -78.26    5.47747E-02  -104.79
   65.00   175.00      -0.41  -11.81   -0.10    0.11296    13.72  RIGHT     1.06799E-01   -77.65    2.87185E-02  -104.06
   65.00   180.00      -0.24 -999.99   -0.24    0.00000     0.00  LINEAR    1.08864E-01   -77.46    3.40992E-12    76.17
   65.00   185.00      -0.41  -11.81   -0.10    0.11296   -13.72  LEFT      1.06799E-01   -77.65    2.87185E-02    75.94
   65.00   190.00      -0.93   -6.21    0.20    0.19476   -27.09  LEFT      1.00570E-01   -78.26    5.47747E-02    75.21
   65.00   195.00      -1.88   -3.44    0.42    0.23342   -39.28  LEFT      9.01220E-02   -79.44    7.53023E-02    73.82
   65.00   200.00      -3.41   -2.17    0.26    0.23732   -49.59  LEFT      7.55362E-02   -81.57    8.71927E-02    71.43
   65.00   205.00      -5.82   -2.14   -0.59    0.21969   -58.04  LEFT      5.72910E-02   -85.66    8.74302E-02    67.14
   65.00   210.00      -9.67   -3.57   -2.61    0.18386   -65.22  LEFT      3.67547E-02   -95.13    7.42212E-02    58.31
   65.00   215.00     -15.69   -6.80   -6.27    0.09995   -70.94  LEFT      1.83888E-02  -127.27    5.11618E-02    34.61
   65.00   220.00     -15.18   -7.51   -6.82    0.03426   -67.61  LEFT      1.94923E-02   160.10    4.71555E-02   -25.46
   65.00   225.00     -10.29   -2.00   -1.40    0.10174   -69.61  LEFT      3.42397E-02   134.14    8.89129E-02   -63.33
   65.00   230.00      -7.84    2.13    2.55    0.11094   -73.43  LEFT      4.53728E-02   126.13    1.42983E-01   -76.21
   65.00   235.00      -7.18    4.49    4.77    0.10384   -76.53  LEFT      4.89393E-02   122.77    1.87561E-01   -82.10
   65.00   240.00      -8.03    5.39    5.58    0.09295   -79.12  LEFT      4.44149E-02   121.38    2.08069E-01   -85.46
   65.00   245.00     -10.46    4.84    4.97    0.08133   -81.39  LEFT      3.35776E-02   121.32    1.95401E-01   -87.63
   65.00   250.00     -14.98    2.50    2.57    0.07004   -83.50  LEFT      1.99451E-02   123.02    1.49194E-01   -89.03
   65.00   255.00     -23.31   -2.95   -2.91    0.06044   -85.74  LEFT      7.64274E-03   130.19    7.97256E-02   -89.16
   65.00   260.00     -38.37  -23.51  -23.37    0.17223    86.86  LEFT      1.35033E-03  -128.63    7.46995E-03   -55.78
   65.00   265.00     -30.78   -6.97   -6.95    0.03239   -86.81  LEFT      3.23511E-03   -71.95    5.01600E-02    77.80
   65.00   270.00     -34.88   -4.00   -3.99    0.02170   -88.94  LEFT      2.01824E-03   -55.67    7.06332E-02    74.89
   65.00   275.00     -43.32   -6.71   -6.71    0.01065    89.41  LEFT      7.63499E-04    14.37    5.17042E-02    60.54
   65.00   280.00     -39.55  -10.71  -10.71    0.00185    87.93  LEFT      1.17898E-03   -26.27    3.25989E-02   -23.32
   65.00   285.00     -25.33   -1.66   -1.64    0.00935    86.29  RIGHT     6.05966E-03   -62.05    9.24503E-02   -70.29
   65.00   290.00     -17.50    2.97    3.01    0.02115    84.73  RIGHT     1.49144E-02   -66.19    1.57580E-01   -79.21
   65.00   295.00     -13.07    5.01    5.07    0.03332    83.15  RIGHT     2.48387E-02   -66.81    1.99116E-01   -82.53
   65.00   300.00     -10.81    5.32    5.43    0.04629    81.52  RIGHT     3.22504E-02   -66.34    2.06519E-01   -83.98
   65.00   305.00     -10.32    4.16    4.31    0.06062    79.86  RIGHT     3.41104E-02   -64.99    1.80614E-01   -84.33
   65.00   310.00     -11.75    1.34    1.55    0.07780    78.28  RIGHT     2.89350E-02   -61.94    1.30640E-01   -83.43
   65.00   315.00     -16.24   -4.08   -3.83    0.10555    77.42  RIGHT     1.72529E-02   -52.54    6.99282E-02   -79.21
   65.00   320.00     -24.99  -17.40  -16.70    0.36689    78.64  RIGHT     6.30069E-03    28.16    1.51032E-02   -37.35
   65.00   325.00     -14.06   -8.72   -7.60    0.12524    62.21  RIGHT     2.21716E-02    91.17    4.10236E-02    74.03
   65.00   330.00      -8.48   -3.72   -2.47    0.13294    60.57  RIGHT     4.21341E-02    99.21    7.28884E-02    81.66
   65.00   335.00      -5.31   -2.06   -0.37    0.14961    55.98  RIGHT     6.07525E-02   102.02    8.83216E-02    83.76
   65.00   340.00      -3.30   -2.04    0.39    0.16337    49.37  RIGHT     7.65630E-02   103.40    8.85167E-02    84.64
   65.00   345.00      -2.00   -3.31    0.41    0.16619    40.45  RIGHT     8.89044E-02   104.17    7.64547E-02    85.07
   65.00   350.00      -1.19   -6.08    0.03    0.14520    28.91  RIGHT     9.76035E-02   104.61    5.55661E-02    85.30
   65.00   355.00      -0.74  -11.70   -0.41    0.08797    15.08  RIGHT     1.02735E-01   104.84    2.91122E-02    85.40
   65.00   360.00      -0.60 -999.99   -0.60    0.00000     0.00  LINEAR    1.04427E-01   104.92    6.91147E-12   -94.56
 ***** DATA CARD NO.  9   EN   0     1    73  1000  6.50000E+01  0.00000E+00  0.00000E+00  5.00000E+00  0.00000E+00  0.00000E+00

 RUN TIME =     6.656
